 ****** HSPICE -- D-2010.03-SP1 32-BIT (May 26 2010) winnt ******               
  Copyright (C) 2010 Synopsys, Inc. All Rights Reserved.                        
  Unpublished-rights reserved under US copyright laws.
  This program is protected by law and is subject to the 
  terms and conditions of the license agreement from Synopsys.
  Use of this program is your acceptance to be bound by the 
  license agreement. HSPICE is the trademark of Synopsys, Inc.
  Input File: c:\onedrive\desktop\ad. vlsi project-phase2\code\finalsram.sp    
  lic:  
  lic: FLEXlm: v8.5b
  lic: USER:   User1                HOSTNAME: DESKTOP-A2LG1N2 
  lic: HOSTID: "88d7f6c66a71 005056c00001 005056c00008 00fff6e62da1" PID:      4
 3
  lic: Using FLEXlm license file: 
  lic: 27000@elena 
  lic: Checkout 1 hspice 
  lic: License/Maintenance for hspice will expire on 31-dec-2020/2007.9 
  lic: NODE LOCKED license on hostid "88d7f6c66a71 005056c00001 005056c00008 00f
 f
  lic:   
 Init: read install configuration file: C:\synopsys\Hspice_D-2010.03-SP1\meta.cfg
1****** HSPICE -- D-2010.03-SP1 32-BIT (May 26 2010) winnt ******               
 ******  
 *hspice sram 32*128

  ******  circuit name directory
 circuit number to circuit name directory
   number circuitname                     definition         multiplier
        0 main circuit
        1 xnot1.                          not                1.00 
        2 xnot2.                          not                1.00 
        3 xnot3.                          not                1.00 
        4 xnot4.                          not                1.00 
        5 xnot5.                          not                1.00 
        6 xnot6.                          not                1.00 
        7 xnot7.                          not                1.00 
        8 xdecoder.                       decoder            1.00 
        9 xword1.                         word               1.00 
       10 xword2.                         word               1.00 
       11 xword3.                         word               1.00 
       12 xword4.                         word               1.00 
       13 xword5.                         word               1.00 
       14 xword6.                         word               1.00 
       15 xword7.                         word               1.00 
       16 xword8.                         word               1.00 
       17 xword9.                         word               1.00 
       18 xword10.                        word               1.00 
       19 xword11.                        word               1.00 
       20 xword12.                        word               1.00 
       21 xword13.                        word               1.00 
       22 xword14.                        word               1.00 
       23 xword15.                        word               1.00 
       24 xword16.                        word               1.00 
       25 xword17.                        word               1.00 
       26 xword18.                        word               1.00 
       27 xword19.                        word               1.00 
       28 xword20.                        word               1.00 
       29 xword21.                        word               1.00 
       30 xword22.                        word               1.00 
       31 xword23.                        word               1.00 
       32 xword24.                        word               1.00 
       33 xword25.                        word               1.00 
       34 xword26.                        word               1.00 
       35 xword27.                        word               1.00 
       36 xword28.                        word               1.00 
       37 xword29.                        word               1.00 
       38 xword30.                        word               1.00 
       39 xword31.                        word               1.00 
       40 xword32.                        word               1.00 
       41 xword33.                        word               1.00 
       42 xword34.                        word               1.00 
       43 xword35.                        word               1.00 
       44 xword36.                        word               1.00 
       45 xword37.                        word               1.00 
       46 xword38.                        word               1.00 
       47 xword39.                        word               1.00 
       48 xword40.                        word               1.00 
       49 xword41.                        word               1.00 
       50 xword42.                        word               1.00 
       51 xword43.                        word               1.00 
       52 xword44.                        word               1.00 
       53 xword45.                        word               1.00 
       54 xword46.                        word               1.00 
       55 xword47.                        word               1.00 
       56 xword48.                        word               1.00 
       57 xword49.                        word               1.00 
       58 xword50.                        word               1.00 
       59 xword51.                        word               1.00 
       60 xword52.                        word               1.00 
       61 xword53.                        word               1.00 
       62 xword54.                        word               1.00 
       63 xword55.                        word               1.00 
       64 xword56.                        word               1.00 
       65 xword57.                        word               1.00 
       66 xword58.                        word               1.00 
       67 xword59.                        word               1.00 
       68 xword60.                        word               1.00 
       69 xword61.                        word               1.00 
       70 xword62.                        word               1.00 
       71 xword63.                        word               1.00 
       72 xword64.                        word               1.00 
       73 xword65.                        word               1.00 
       74 xword66.                        word               1.00 
       75 xword67.                        word               1.00 
       76 xword68.                        word               1.00 
       77 xword69.                        word               1.00 
       78 xword70.                        word               1.00 
       79 xword71.                        word               1.00 
       80 xword72.                        word               1.00 
       81 xword73.                        word               1.00 
       82 xword74.                        word               1.00 
       83 xword75.                        word               1.00 
       84 xword76.                        word               1.00 
       85 xword77.                        word               1.00 
       86 xword78.                        word               1.00 
       87 xword79.                        word               1.00 
       88 xword80.                        word               1.00 
       89 xword81.                        word               1.00 
       90 xword82.                        word               1.00 
       91 xword83.                        word               1.00 
       92 xword84.                        word               1.00 
       93 xword85.                        word               1.00 
       94 xword86.                        word               1.00 
       95 xword87.                        word               1.00 
       96 xword88.                        word               1.00 
       97 xword89.                        word               1.00 
       98 xword90.                        word               1.00 
       99 xword91.                        word               1.00 
      100 xword92.                        word               1.00 
      101 xword93.                        word               1.00 
      102 xword94.                        word               1.00 
      103 xword95.                        word               1.00 
      104 xword96.                        word               1.00 
      105 xword97.                        word               1.00 
      106 xword98.                        word               1.00 
      107 xword99.                        word               1.00 
      108 xword100.                       word               1.00 
      109 xword101.                       word               1.00 
      110 xword102.                       word               1.00 
      111 xword103.                       word               1.00 
      112 xword104.                       word               1.00 
      113 xword105.                       word               1.00 
      114 xword106.                       word               1.00 
      115 xword107.                       word               1.00 
      116 xword108.                       word               1.00 
      117 xword109.                       word               1.00 
      118 xword110.                       word               1.00 
      119 xword111.                       word               1.00 
      120 xword112.                       word               1.00 
      121 xword113.                       word               1.00 
      122 xword114.                       word               1.00 
      123 xword115.                       word               1.00 
      124 xword116.                       word               1.00 
      125 xword117.                       word               1.00 
      126 xword118.                       word               1.00 
      127 xword119.                       word               1.00 
      128 xword120.                       word               1.00 
      129 xword121.                       word               1.00 
      130 xword122.                       word               1.00 
      131 xword123.                       word               1.00 
      132 xword124.                       word               1.00 
      133 xword125.                       word               1.00 
      134 xword126.                       word               1.00 
      135 xword127.                       word               1.00 
      136 xword128.                       word               1.00 
      137 xword1.xsram1.                  sram               1.00 
      138 xword1.xsram2.                  sram               1.00 
      139 xword1.xsram3.                  sram               1.00 
      140 xword1.xsram4.                  sram               1.00 
      141 xword1.xsram5.                  sram               1.00 
      142 xword1.xsram6.                  sram               1.00 
      143 xword1.xsram7.                  sram               1.00 
      144 xword2.xsram1.                  sram               1.00 
      145 xword2.xsram2.                  sram               1.00 
      146 xword2.xsram3.                  sram               1.00 
      147 xword2.xsram4.                  sram               1.00 
      148 xword2.xsram5.                  sram               1.00 
      149 xword2.xsram6.                  sram               1.00 
      150 xword2.xsram7.                  sram               1.00 
      151 xword3.xsram1.                  sram               1.00 
      152 xword3.xsram2.                  sram               1.00 
      153 xword3.xsram3.                  sram               1.00 
      154 xword3.xsram4.                  sram               1.00 
      155 xword3.xsram5.                  sram               1.00 
      156 xword3.xsram6.                  sram               1.00 
      157 xword3.xsram7.                  sram               1.00 
      158 xword4.xsram1.                  sram               1.00 
      159 xword4.xsram2.                  sram               1.00 
      160 xword4.xsram3.                  sram               1.00 
      161 xword4.xsram4.                  sram               1.00 
      162 xword4.xsram5.                  sram               1.00 
      163 xword4.xsram6.                  sram               1.00 
      164 xword4.xsram7.                  sram               1.00 
      165 xword5.xsram1.                  sram               1.00 
      166 xword5.xsram2.                  sram               1.00 
      167 xword5.xsram3.                  sram               1.00 
      168 xword5.xsram4.                  sram               1.00 
      169 xword5.xsram5.                  sram               1.00 
      170 xword5.xsram6.                  sram               1.00 
      171 xword5.xsram7.                  sram               1.00 
      172 xword6.xsram1.                  sram               1.00 
      173 xword6.xsram2.                  sram               1.00 
      174 xword6.xsram3.                  sram               1.00 
      175 xword6.xsram4.                  sram               1.00 
      176 xword6.xsram5.                  sram               1.00 
      177 xword6.xsram6.                  sram               1.00 
      178 xword6.xsram7.                  sram               1.00 
      179 xword7.xsram1.                  sram               1.00 
      180 xword7.xsram2.                  sram               1.00 
      181 xword7.xsram3.                  sram               1.00 
      182 xword7.xsram4.                  sram               1.00 
      183 xword7.xsram5.                  sram               1.00 
      184 xword7.xsram6.                  sram               1.00 
      185 xword7.xsram7.                  sram               1.00 
      186 xword8.xsram1.                  sram               1.00 
      187 xword8.xsram2.                  sram               1.00 
      188 xword8.xsram3.                  sram               1.00 
      189 xword8.xsram4.                  sram               1.00 
      190 xword8.xsram5.                  sram               1.00 
      191 xword8.xsram6.                  sram               1.00 
      192 xword8.xsram7.                  sram               1.00 
      193 xword9.xsram1.                  sram               1.00 
      194 xword9.xsram2.                  sram               1.00 
      195 xword9.xsram3.                  sram               1.00 
      196 xword9.xsram4.                  sram               1.00 
      197 xword9.xsram5.                  sram               1.00 
      198 xword9.xsram6.                  sram               1.00 
      199 xword9.xsram7.                  sram               1.00 
      200 xword10.xsram1.                 sram               1.00 
      201 xword10.xsram2.                 sram               1.00 
      202 xword10.xsram3.                 sram               1.00 
      203 xword10.xsram4.                 sram               1.00 
      204 xword10.xsram5.                 sram               1.00 
      205 xword10.xsram6.                 sram               1.00 
      206 xword10.xsram7.                 sram               1.00 
      207 xword11.xsram1.                 sram               1.00 
      208 xword11.xsram2.                 sram               1.00 
      209 xword11.xsram3.                 sram               1.00 
      210 xword11.xsram4.                 sram               1.00 
      211 xword11.xsram5.                 sram               1.00 
      212 xword11.xsram6.                 sram               1.00 
      213 xword11.xsram7.                 sram               1.00 
      214 xword12.xsram1.                 sram               1.00 
      215 xword12.xsram2.                 sram               1.00 
      216 xword12.xsram3.                 sram               1.00 
      217 xword12.xsram4.                 sram               1.00 
      218 xword12.xsram5.                 sram               1.00 
      219 xword12.xsram6.                 sram               1.00 
      220 xword12.xsram7.                 sram               1.00 
      221 xword13.xsram1.                 sram               1.00 
      222 xword13.xsram2.                 sram               1.00 
      223 xword13.xsram3.                 sram               1.00 
      224 xword13.xsram4.                 sram               1.00 
      225 xword13.xsram5.                 sram               1.00 
      226 xword13.xsram6.                 sram               1.00 
      227 xword13.xsram7.                 sram               1.00 
      228 xword14.xsram1.                 sram               1.00 
      229 xword14.xsram2.                 sram               1.00 
      230 xword14.xsram3.                 sram               1.00 
      231 xword14.xsram4.                 sram               1.00 
      232 xword14.xsram5.                 sram               1.00 
      233 xword14.xsram6.                 sram               1.00 
      234 xword14.xsram7.                 sram               1.00 
      235 xword15.xsram1.                 sram               1.00 
      236 xword15.xsram2.                 sram               1.00 
      237 xword15.xsram3.                 sram               1.00 
      238 xword15.xsram4.                 sram               1.00 
      239 xword15.xsram5.                 sram               1.00 
      240 xword15.xsram6.                 sram               1.00 
      241 xword15.xsram7.                 sram               1.00 
      242 xword16.xsram1.                 sram               1.00 
      243 xword16.xsram2.                 sram               1.00 
      244 xword16.xsram3.                 sram               1.00 
      245 xword16.xsram4.                 sram               1.00 
      246 xword16.xsram5.                 sram               1.00 
      247 xword16.xsram6.                 sram               1.00 
      248 xword16.xsram7.                 sram               1.00 
      249 xword17.xsram1.                 sram               1.00 
      250 xword17.xsram2.                 sram               1.00 
      251 xword17.xsram3.                 sram               1.00 
      252 xword17.xsram4.                 sram               1.00 
      253 xword17.xsram5.                 sram               1.00 
      254 xword17.xsram6.                 sram               1.00 
      255 xword17.xsram7.                 sram               1.00 
      256 xword18.xsram1.                 sram               1.00 
      257 xword18.xsram2.                 sram               1.00 
      258 xword18.xsram3.                 sram               1.00 
      259 xword18.xsram4.                 sram               1.00 
      260 xword18.xsram5.                 sram               1.00 
      261 xword18.xsram6.                 sram               1.00 
      262 xword18.xsram7.                 sram               1.00 
      263 xword19.xsram1.                 sram               1.00 
      264 xword19.xsram2.                 sram               1.00 
      265 xword19.xsram3.                 sram               1.00 
      266 xword19.xsram4.                 sram               1.00 
      267 xword19.xsram5.                 sram               1.00 
      268 xword19.xsram6.                 sram               1.00 
      269 xword19.xsram7.                 sram               1.00 
      270 xword20.xsram1.                 sram               1.00 
      271 xword20.xsram2.                 sram               1.00 
      272 xword20.xsram3.                 sram               1.00 
      273 xword20.xsram4.                 sram               1.00 
      274 xword20.xsram5.                 sram               1.00 
      275 xword20.xsram6.                 sram               1.00 
      276 xword20.xsram7.                 sram               1.00 
      277 xword21.xsram1.                 sram               1.00 
      278 xword21.xsram2.                 sram               1.00 
      279 xword21.xsram3.                 sram               1.00 
      280 xword21.xsram4.                 sram               1.00 
      281 xword21.xsram5.                 sram               1.00 
      282 xword21.xsram6.                 sram               1.00 
      283 xword21.xsram7.                 sram               1.00 
      284 xword22.xsram1.                 sram               1.00 
      285 xword22.xsram2.                 sram               1.00 
      286 xword22.xsram3.                 sram               1.00 
      287 xword22.xsram4.                 sram               1.00 
      288 xword22.xsram5.                 sram               1.00 
      289 xword22.xsram6.                 sram               1.00 
      290 xword22.xsram7.                 sram               1.00 
      291 xword23.xsram1.                 sram               1.00 
      292 xword23.xsram2.                 sram               1.00 
      293 xword23.xsram3.                 sram               1.00 
      294 xword23.xsram4.                 sram               1.00 
      295 xword23.xsram5.                 sram               1.00 
      296 xword23.xsram6.                 sram               1.00 
      297 xword23.xsram7.                 sram               1.00 
      298 xword24.xsram1.                 sram               1.00 
      299 xword24.xsram2.                 sram               1.00 
      300 xword24.xsram3.                 sram               1.00 
      301 xword24.xsram4.                 sram               1.00 
      302 xword24.xsram5.                 sram               1.00 
      303 xword24.xsram6.                 sram               1.00 
      304 xword24.xsram7.                 sram               1.00 
      305 xword25.xsram1.                 sram               1.00 
      306 xword25.xsram2.                 sram               1.00 
      307 xword25.xsram3.                 sram               1.00 
      308 xword25.xsram4.                 sram               1.00 
      309 xword25.xsram5.                 sram               1.00 
      310 xword25.xsram6.                 sram               1.00 
      311 xword25.xsram7.                 sram               1.00 
      312 xword26.xsram1.                 sram               1.00 
      313 xword26.xsram2.                 sram               1.00 
      314 xword26.xsram3.                 sram               1.00 
      315 xword26.xsram4.                 sram               1.00 
      316 xword26.xsram5.                 sram               1.00 
      317 xword26.xsram6.                 sram               1.00 
      318 xword26.xsram7.                 sram               1.00 
      319 xword27.xsram1.                 sram               1.00 
      320 xword27.xsram2.                 sram               1.00 
      321 xword27.xsram3.                 sram               1.00 
      322 xword27.xsram4.                 sram               1.00 
      323 xword27.xsram5.                 sram               1.00 
      324 xword27.xsram6.                 sram               1.00 
      325 xword27.xsram7.                 sram               1.00 
      326 xword28.xsram1.                 sram               1.00 
      327 xword28.xsram2.                 sram               1.00 
      328 xword28.xsram3.                 sram               1.00 
      329 xword28.xsram4.                 sram               1.00 
      330 xword28.xsram5.                 sram               1.00 
      331 xword28.xsram6.                 sram               1.00 
      332 xword28.xsram7.                 sram               1.00 
      333 xword29.xsram1.                 sram               1.00 
      334 xword29.xsram2.                 sram               1.00 
      335 xword29.xsram3.                 sram               1.00 
      336 xword29.xsram4.                 sram               1.00 
      337 xword29.xsram5.                 sram               1.00 
      338 xword29.xsram6.                 sram               1.00 
      339 xword29.xsram7.                 sram               1.00 
      340 xword30.xsram1.                 sram               1.00 
      341 xword30.xsram2.                 sram               1.00 
      342 xword30.xsram3.                 sram               1.00 
      343 xword30.xsram4.                 sram               1.00 
      344 xword30.xsram5.                 sram               1.00 
      345 xword30.xsram6.                 sram               1.00 
      346 xword30.xsram7.                 sram               1.00 
      347 xword31.xsram1.                 sram               1.00 
      348 xword31.xsram2.                 sram               1.00 
      349 xword31.xsram3.                 sram               1.00 
      350 xword31.xsram4.                 sram               1.00 
      351 xword31.xsram5.                 sram               1.00 
      352 xword31.xsram6.                 sram               1.00 
      353 xword31.xsram7.                 sram               1.00 
      354 xword32.xsram1.                 sram               1.00 
      355 xword32.xsram2.                 sram               1.00 
      356 xword32.xsram3.                 sram               1.00 
      357 xword32.xsram4.                 sram               1.00 
      358 xword32.xsram5.                 sram               1.00 
      359 xword32.xsram6.                 sram               1.00 
      360 xword32.xsram7.                 sram               1.00 
      361 xword33.xsram1.                 sram               1.00 
      362 xword33.xsram2.                 sram               1.00 
      363 xword33.xsram3.                 sram               1.00 
      364 xword33.xsram4.                 sram               1.00 
      365 xword33.xsram5.                 sram               1.00 
      366 xword33.xsram6.                 sram               1.00 
      367 xword33.xsram7.                 sram               1.00 
      368 xword34.xsram1.                 sram               1.00 
      369 xword34.xsram2.                 sram               1.00 
      370 xword34.xsram3.                 sram               1.00 
      371 xword34.xsram4.                 sram               1.00 
      372 xword34.xsram5.                 sram               1.00 
      373 xword34.xsram6.                 sram               1.00 
      374 xword34.xsram7.                 sram               1.00 
      375 xword35.xsram1.                 sram               1.00 
      376 xword35.xsram2.                 sram               1.00 
      377 xword35.xsram3.                 sram               1.00 
      378 xword35.xsram4.                 sram               1.00 
      379 xword35.xsram5.                 sram               1.00 
      380 xword35.xsram6.                 sram               1.00 
      381 xword35.xsram7.                 sram               1.00 
      382 xword36.xsram1.                 sram               1.00 
      383 xword36.xsram2.                 sram               1.00 
      384 xword36.xsram3.                 sram               1.00 
      385 xword36.xsram4.                 sram               1.00 
      386 xword36.xsram5.                 sram               1.00 
      387 xword36.xsram6.                 sram               1.00 
      388 xword36.xsram7.                 sram               1.00 
      389 xword37.xsram1.                 sram               1.00 
      390 xword37.xsram2.                 sram               1.00 
      391 xword37.xsram3.                 sram               1.00 
      392 xword37.xsram4.                 sram               1.00 
      393 xword37.xsram5.                 sram               1.00 
      394 xword37.xsram6.                 sram               1.00 
      395 xword37.xsram7.                 sram               1.00 
      396 xword38.xsram1.                 sram               1.00 
      397 xword38.xsram2.                 sram               1.00 
      398 xword38.xsram3.                 sram               1.00 
      399 xword38.xsram4.                 sram               1.00 
      400 xword38.xsram5.                 sram               1.00 
      401 xword38.xsram6.                 sram               1.00 
      402 xword38.xsram7.                 sram               1.00 
      403 xword39.xsram1.                 sram               1.00 
      404 xword39.xsram2.                 sram               1.00 
      405 xword39.xsram3.                 sram               1.00 
      406 xword39.xsram4.                 sram               1.00 
      407 xword39.xsram5.                 sram               1.00 
      408 xword39.xsram6.                 sram               1.00 
      409 xword39.xsram7.                 sram               1.00 
      410 xword40.xsram1.                 sram               1.00 
      411 xword40.xsram2.                 sram               1.00 
      412 xword40.xsram3.                 sram               1.00 
      413 xword40.xsram4.                 sram               1.00 
      414 xword40.xsram5.                 sram               1.00 
      415 xword40.xsram6.                 sram               1.00 
      416 xword40.xsram7.                 sram               1.00 
      417 xword41.xsram1.                 sram               1.00 
      418 xword41.xsram2.                 sram               1.00 
      419 xword41.xsram3.                 sram               1.00 
      420 xword41.xsram4.                 sram               1.00 
      421 xword41.xsram5.                 sram               1.00 
      422 xword41.xsram6.                 sram               1.00 
      423 xword41.xsram7.                 sram               1.00 
      424 xword42.xsram1.                 sram               1.00 
      425 xword42.xsram2.                 sram               1.00 
      426 xword42.xsram3.                 sram               1.00 
      427 xword42.xsram4.                 sram               1.00 
      428 xword42.xsram5.                 sram               1.00 
      429 xword42.xsram6.                 sram               1.00 
      430 xword42.xsram7.                 sram               1.00 
      431 xword43.xsram1.                 sram               1.00 
      432 xword43.xsram2.                 sram               1.00 
      433 xword43.xsram3.                 sram               1.00 
      434 xword43.xsram4.                 sram               1.00 
      435 xword43.xsram5.                 sram               1.00 
      436 xword43.xsram6.                 sram               1.00 
      437 xword43.xsram7.                 sram               1.00 
      438 xword44.xsram1.                 sram               1.00 
      439 xword44.xsram2.                 sram               1.00 
      440 xword44.xsram3.                 sram               1.00 
      441 xword44.xsram4.                 sram               1.00 
      442 xword44.xsram5.                 sram               1.00 
      443 xword44.xsram6.                 sram               1.00 
      444 xword44.xsram7.                 sram               1.00 
      445 xword45.xsram1.                 sram               1.00 
      446 xword45.xsram2.                 sram               1.00 
      447 xword45.xsram3.                 sram               1.00 
      448 xword45.xsram4.                 sram               1.00 
      449 xword45.xsram5.                 sram               1.00 
      450 xword45.xsram6.                 sram               1.00 
      451 xword45.xsram7.                 sram               1.00 
      452 xword46.xsram1.                 sram               1.00 
      453 xword46.xsram2.                 sram               1.00 
      454 xword46.xsram3.                 sram               1.00 
      455 xword46.xsram4.                 sram               1.00 
      456 xword46.xsram5.                 sram               1.00 
      457 xword46.xsram6.                 sram               1.00 
      458 xword46.xsram7.                 sram               1.00 
      459 xword47.xsram1.                 sram               1.00 
      460 xword47.xsram2.                 sram               1.00 
      461 xword47.xsram3.                 sram               1.00 
      462 xword47.xsram4.                 sram               1.00 
      463 xword47.xsram5.                 sram               1.00 
      464 xword47.xsram6.                 sram               1.00 
      465 xword47.xsram7.                 sram               1.00 
      466 xword48.xsram1.                 sram               1.00 
      467 xword48.xsram2.                 sram               1.00 
      468 xword48.xsram3.                 sram               1.00 
      469 xword48.xsram4.                 sram               1.00 
      470 xword48.xsram5.                 sram               1.00 
      471 xword48.xsram6.                 sram               1.00 
      472 xword48.xsram7.                 sram               1.00 
      473 xword49.xsram1.                 sram               1.00 
      474 xword49.xsram2.                 sram               1.00 
      475 xword49.xsram3.                 sram               1.00 
      476 xword49.xsram4.                 sram               1.00 
      477 xword49.xsram5.                 sram               1.00 
      478 xword49.xsram6.                 sram               1.00 
      479 xword49.xsram7.                 sram               1.00 
      480 xword50.xsram1.                 sram               1.00 
      481 xword50.xsram2.                 sram               1.00 
      482 xword50.xsram3.                 sram               1.00 
      483 xword50.xsram4.                 sram               1.00 
      484 xword50.xsram5.                 sram               1.00 
      485 xword50.xsram6.                 sram               1.00 
      486 xword50.xsram7.                 sram               1.00 
      487 xword51.xsram1.                 sram               1.00 
      488 xword51.xsram2.                 sram               1.00 
      489 xword51.xsram3.                 sram               1.00 
      490 xword51.xsram4.                 sram               1.00 
      491 xword51.xsram5.                 sram               1.00 
      492 xword51.xsram6.                 sram               1.00 
      493 xword51.xsram7.                 sram               1.00 
      494 xword52.xsram1.                 sram               1.00 
      495 xword52.xsram2.                 sram               1.00 
      496 xword52.xsram3.                 sram               1.00 
      497 xword52.xsram4.                 sram               1.00 
      498 xword52.xsram5.                 sram               1.00 
      499 xword52.xsram6.                 sram               1.00 
      500 xword52.xsram7.                 sram               1.00 
      501 xword53.xsram1.                 sram               1.00 
      502 xword53.xsram2.                 sram               1.00 
      503 xword53.xsram3.                 sram               1.00 
      504 xword53.xsram4.                 sram               1.00 
      505 xword53.xsram5.                 sram               1.00 
      506 xword53.xsram6.                 sram               1.00 
      507 xword53.xsram7.                 sram               1.00 
      508 xword54.xsram1.                 sram               1.00 
      509 xword54.xsram2.                 sram               1.00 
      510 xword54.xsram3.                 sram               1.00 
      511 xword54.xsram4.                 sram               1.00 
      512 xword54.xsram5.                 sram               1.00 
      513 xword54.xsram6.                 sram               1.00 
      514 xword54.xsram7.                 sram               1.00 
      515 xword55.xsram1.                 sram               1.00 
      516 xword55.xsram2.                 sram               1.00 
      517 xword55.xsram3.                 sram               1.00 
      518 xword55.xsram4.                 sram               1.00 
      519 xword55.xsram5.                 sram               1.00 
      520 xword55.xsram6.                 sram               1.00 
      521 xword55.xsram7.                 sram               1.00 
      522 xword56.xsram1.                 sram               1.00 
      523 xword56.xsram2.                 sram               1.00 
      524 xword56.xsram3.                 sram               1.00 
      525 xword56.xsram4.                 sram               1.00 
      526 xword56.xsram5.                 sram               1.00 
      527 xword56.xsram6.                 sram               1.00 
      528 xword56.xsram7.                 sram               1.00 
      529 xword57.xsram1.                 sram               1.00 
      530 xword57.xsram2.                 sram               1.00 
      531 xword57.xsram3.                 sram               1.00 
      532 xword57.xsram4.                 sram               1.00 
      533 xword57.xsram5.                 sram               1.00 
      534 xword57.xsram6.                 sram               1.00 
      535 xword57.xsram7.                 sram               1.00 
      536 xword58.xsram1.                 sram               1.00 
      537 xword58.xsram2.                 sram               1.00 
      538 xword58.xsram3.                 sram               1.00 
      539 xword58.xsram4.                 sram               1.00 
      540 xword58.xsram5.                 sram               1.00 
      541 xword58.xsram6.                 sram               1.00 
      542 xword58.xsram7.                 sram               1.00 
      543 xword59.xsram1.                 sram               1.00 
      544 xword59.xsram2.                 sram               1.00 
      545 xword59.xsram3.                 sram               1.00 
      546 xword59.xsram4.                 sram               1.00 
      547 xword59.xsram5.                 sram               1.00 
      548 xword59.xsram6.                 sram               1.00 
      549 xword59.xsram7.                 sram               1.00 
      550 xword60.xsram1.                 sram               1.00 
      551 xword60.xsram2.                 sram               1.00 
      552 xword60.xsram3.                 sram               1.00 
      553 xword60.xsram4.                 sram               1.00 
      554 xword60.xsram5.                 sram               1.00 
      555 xword60.xsram6.                 sram               1.00 
      556 xword60.xsram7.                 sram               1.00 
      557 xword61.xsram1.                 sram               1.00 
      558 xword61.xsram2.                 sram               1.00 
      559 xword61.xsram3.                 sram               1.00 
      560 xword61.xsram4.                 sram               1.00 
      561 xword61.xsram5.                 sram               1.00 
      562 xword61.xsram6.                 sram               1.00 
      563 xword61.xsram7.                 sram               1.00 
      564 xword62.xsram1.                 sram               1.00 
      565 xword62.xsram2.                 sram               1.00 
      566 xword62.xsram3.                 sram               1.00 
      567 xword62.xsram4.                 sram               1.00 
      568 xword62.xsram5.                 sram               1.00 
      569 xword62.xsram6.                 sram               1.00 
      570 xword62.xsram7.                 sram               1.00 
      571 xword63.xsram1.                 sram               1.00 
      572 xword63.xsram2.                 sram               1.00 
      573 xword63.xsram3.                 sram               1.00 
      574 xword63.xsram4.                 sram               1.00 
      575 xword63.xsram5.                 sram               1.00 
      576 xword63.xsram6.                 sram               1.00 
      577 xword63.xsram7.                 sram               1.00 
      578 xword64.xsram1.                 sram               1.00 
      579 xword64.xsram2.                 sram               1.00 
      580 xword64.xsram3.                 sram               1.00 
      581 xword64.xsram4.                 sram               1.00 
      582 xword64.xsram5.                 sram               1.00 
      583 xword64.xsram6.                 sram               1.00 
      584 xword64.xsram7.                 sram               1.00 
      585 xword65.xsram1.                 sram               1.00 
      586 xword65.xsram2.                 sram               1.00 
      587 xword65.xsram3.                 sram               1.00 
      588 xword65.xsram4.                 sram               1.00 
      589 xword65.xsram5.                 sram               1.00 
      590 xword65.xsram6.                 sram               1.00 
      591 xword65.xsram7.                 sram               1.00 
      592 xword66.xsram1.                 sram               1.00 
      593 xword66.xsram2.                 sram               1.00 
      594 xword66.xsram3.                 sram               1.00 
      595 xword66.xsram4.                 sram               1.00 
      596 xword66.xsram5.                 sram               1.00 
      597 xword66.xsram6.                 sram               1.00 
      598 xword66.xsram7.                 sram               1.00 
      599 xword67.xsram1.                 sram               1.00 
      600 xword67.xsram2.                 sram               1.00 
      601 xword67.xsram3.                 sram               1.00 
      602 xword67.xsram4.                 sram               1.00 
      603 xword67.xsram5.                 sram               1.00 
      604 xword67.xsram6.                 sram               1.00 
      605 xword67.xsram7.                 sram               1.00 
      606 xword68.xsram1.                 sram               1.00 
      607 xword68.xsram2.                 sram               1.00 
      608 xword68.xsram3.                 sram               1.00 
      609 xword68.xsram4.                 sram               1.00 
      610 xword68.xsram5.                 sram               1.00 
      611 xword68.xsram6.                 sram               1.00 
      612 xword68.xsram7.                 sram               1.00 
      613 xword69.xsram1.                 sram               1.00 
      614 xword69.xsram2.                 sram               1.00 
      615 xword69.xsram3.                 sram               1.00 
      616 xword69.xsram4.                 sram               1.00 
      617 xword69.xsram5.                 sram               1.00 
      618 xword69.xsram6.                 sram               1.00 
      619 xword69.xsram7.                 sram               1.00 
      620 xword70.xsram1.                 sram               1.00 
      621 xword70.xsram2.                 sram               1.00 
      622 xword70.xsram3.                 sram               1.00 
      623 xword70.xsram4.                 sram               1.00 
      624 xword70.xsram5.                 sram               1.00 
      625 xword70.xsram6.                 sram               1.00 
      626 xword70.xsram7.                 sram               1.00 
      627 xword71.xsram1.                 sram               1.00 
      628 xword71.xsram2.                 sram               1.00 
      629 xword71.xsram3.                 sram               1.00 
      630 xword71.xsram4.                 sram               1.00 
      631 xword71.xsram5.                 sram               1.00 
      632 xword71.xsram6.                 sram               1.00 
      633 xword71.xsram7.                 sram               1.00 
      634 xword72.xsram1.                 sram               1.00 
      635 xword72.xsram2.                 sram               1.00 
      636 xword72.xsram3.                 sram               1.00 
      637 xword72.xsram4.                 sram               1.00 
      638 xword72.xsram5.                 sram               1.00 
      639 xword72.xsram6.                 sram               1.00 
      640 xword72.xsram7.                 sram               1.00 
      641 xword73.xsram1.                 sram               1.00 
      642 xword73.xsram2.                 sram               1.00 
      643 xword73.xsram3.                 sram               1.00 
      644 xword73.xsram4.                 sram               1.00 
      645 xword73.xsram5.                 sram               1.00 
      646 xword73.xsram6.                 sram               1.00 
      647 xword73.xsram7.                 sram               1.00 
      648 xword74.xsram1.                 sram               1.00 
      649 xword74.xsram2.                 sram               1.00 
      650 xword74.xsram3.                 sram               1.00 
      651 xword74.xsram4.                 sram               1.00 
      652 xword74.xsram5.                 sram               1.00 
      653 xword74.xsram6.                 sram               1.00 
      654 xword74.xsram7.                 sram               1.00 
      655 xword75.xsram1.                 sram               1.00 
      656 xword75.xsram2.                 sram               1.00 
      657 xword75.xsram3.                 sram               1.00 
      658 xword75.xsram4.                 sram               1.00 
      659 xword75.xsram5.                 sram               1.00 
      660 xword75.xsram6.                 sram               1.00 
      661 xword75.xsram7.                 sram               1.00 
      662 xword76.xsram1.                 sram               1.00 
      663 xword76.xsram2.                 sram               1.00 
      664 xword76.xsram3.                 sram               1.00 
      665 xword76.xsram4.                 sram               1.00 
      666 xword76.xsram5.                 sram               1.00 
      667 xword76.xsram6.                 sram               1.00 
      668 xword76.xsram7.                 sram               1.00 
      669 xword77.xsram1.                 sram               1.00 
      670 xword77.xsram2.                 sram               1.00 
      671 xword77.xsram3.                 sram               1.00 
      672 xword77.xsram4.                 sram               1.00 
      673 xword77.xsram5.                 sram               1.00 
      674 xword77.xsram6.                 sram               1.00 
      675 xword77.xsram7.                 sram               1.00 
      676 xword78.xsram1.                 sram               1.00 
      677 xword78.xsram2.                 sram               1.00 
      678 xword78.xsram3.                 sram               1.00 
      679 xword78.xsram4.                 sram               1.00 
      680 xword78.xsram5.                 sram               1.00 
      681 xword78.xsram6.                 sram               1.00 
      682 xword78.xsram7.                 sram               1.00 
      683 xword79.xsram1.                 sram               1.00 
      684 xword79.xsram2.                 sram               1.00 
      685 xword79.xsram3.                 sram               1.00 
      686 xword79.xsram4.                 sram               1.00 
      687 xword79.xsram5.                 sram               1.00 
      688 xword79.xsram6.                 sram               1.00 
      689 xword79.xsram7.                 sram               1.00 
      690 xword80.xsram1.                 sram               1.00 
      691 xword80.xsram2.                 sram               1.00 
      692 xword80.xsram3.                 sram               1.00 
      693 xword80.xsram4.                 sram               1.00 
      694 xword80.xsram5.                 sram               1.00 
      695 xword80.xsram6.                 sram               1.00 
      696 xword80.xsram7.                 sram               1.00 
      697 xword81.xsram1.                 sram               1.00 
      698 xword81.xsram2.                 sram               1.00 
      699 xword81.xsram3.                 sram               1.00 
      700 xword81.xsram4.                 sram               1.00 
      701 xword81.xsram5.                 sram               1.00 
      702 xword81.xsram6.                 sram               1.00 
      703 xword81.xsram7.                 sram               1.00 
      704 xword82.xsram1.                 sram               1.00 
      705 xword82.xsram2.                 sram               1.00 
      706 xword82.xsram3.                 sram               1.00 
      707 xword82.xsram4.                 sram               1.00 
      708 xword82.xsram5.                 sram               1.00 
      709 xword82.xsram6.                 sram               1.00 
      710 xword82.xsram7.                 sram               1.00 
      711 xword83.xsram1.                 sram               1.00 
      712 xword83.xsram2.                 sram               1.00 
      713 xword83.xsram3.                 sram               1.00 
      714 xword83.xsram4.                 sram               1.00 
      715 xword83.xsram5.                 sram               1.00 
      716 xword83.xsram6.                 sram               1.00 
      717 xword83.xsram7.                 sram               1.00 
      718 xword84.xsram1.                 sram               1.00 
      719 xword84.xsram2.                 sram               1.00 
      720 xword84.xsram3.                 sram               1.00 
      721 xword84.xsram4.                 sram               1.00 
      722 xword84.xsram5.                 sram               1.00 
      723 xword84.xsram6.                 sram               1.00 
      724 xword84.xsram7.                 sram               1.00 
      725 xword85.xsram1.                 sram               1.00 
      726 xword85.xsram2.                 sram               1.00 
      727 xword85.xsram3.                 sram               1.00 
      728 xword85.xsram4.                 sram               1.00 
      729 xword85.xsram5.                 sram               1.00 
      730 xword85.xsram6.                 sram               1.00 
      731 xword85.xsram7.                 sram               1.00 
      732 xword86.xsram1.                 sram               1.00 
      733 xword86.xsram2.                 sram               1.00 
      734 xword86.xsram3.                 sram               1.00 
      735 xword86.xsram4.                 sram               1.00 
      736 xword86.xsram5.                 sram               1.00 
      737 xword86.xsram6.                 sram               1.00 
      738 xword86.xsram7.                 sram               1.00 
      739 xword87.xsram1.                 sram               1.00 
      740 xword87.xsram2.                 sram               1.00 
      741 xword87.xsram3.                 sram               1.00 
      742 xword87.xsram4.                 sram               1.00 
      743 xword87.xsram5.                 sram               1.00 
      744 xword87.xsram6.                 sram               1.00 
      745 xword87.xsram7.                 sram               1.00 
      746 xword88.xsram1.                 sram               1.00 
      747 xword88.xsram2.                 sram               1.00 
      748 xword88.xsram3.                 sram               1.00 
      749 xword88.xsram4.                 sram               1.00 
      750 xword88.xsram5.                 sram               1.00 
      751 xword88.xsram6.                 sram               1.00 
      752 xword88.xsram7.                 sram               1.00 
      753 xword89.xsram1.                 sram               1.00 
      754 xword89.xsram2.                 sram               1.00 
      755 xword89.xsram3.                 sram               1.00 
      756 xword89.xsram4.                 sram               1.00 
      757 xword89.xsram5.                 sram               1.00 
      758 xword89.xsram6.                 sram               1.00 
      759 xword89.xsram7.                 sram               1.00 
      760 xword90.xsram1.                 sram               1.00 
      761 xword90.xsram2.                 sram               1.00 
      762 xword90.xsram3.                 sram               1.00 
      763 xword90.xsram4.                 sram               1.00 
      764 xword90.xsram5.                 sram               1.00 
      765 xword90.xsram6.                 sram               1.00 
      766 xword90.xsram7.                 sram               1.00 
      767 xword91.xsram1.                 sram               1.00 
      768 xword91.xsram2.                 sram               1.00 
      769 xword91.xsram3.                 sram               1.00 
      770 xword91.xsram4.                 sram               1.00 
      771 xword91.xsram5.                 sram               1.00 
      772 xword91.xsram6.                 sram               1.00 
      773 xword91.xsram7.                 sram               1.00 
      774 xword92.xsram1.                 sram               1.00 
      775 xword92.xsram2.                 sram               1.00 
      776 xword92.xsram3.                 sram               1.00 
      777 xword92.xsram4.                 sram               1.00 
      778 xword92.xsram5.                 sram               1.00 
      779 xword92.xsram6.                 sram               1.00 
      780 xword92.xsram7.                 sram               1.00 
      781 xword93.xsram1.                 sram               1.00 
      782 xword93.xsram2.                 sram               1.00 
      783 xword93.xsram3.                 sram               1.00 
      784 xword93.xsram4.                 sram               1.00 
      785 xword93.xsram5.                 sram               1.00 
      786 xword93.xsram6.                 sram               1.00 
      787 xword93.xsram7.                 sram               1.00 
      788 xword94.xsram1.                 sram               1.00 
      789 xword94.xsram2.                 sram               1.00 
      790 xword94.xsram3.                 sram               1.00 
      791 xword94.xsram4.                 sram               1.00 
      792 xword94.xsram5.                 sram               1.00 
      793 xword94.xsram6.                 sram               1.00 
      794 xword94.xsram7.                 sram               1.00 
      795 xword95.xsram1.                 sram               1.00 
      796 xword95.xsram2.                 sram               1.00 
      797 xword95.xsram3.                 sram               1.00 
      798 xword95.xsram4.                 sram               1.00 
      799 xword95.xsram5.                 sram               1.00 
      800 xword95.xsram6.                 sram               1.00 
      801 xword95.xsram7.                 sram               1.00 
      802 xword96.xsram1.                 sram               1.00 
      803 xword96.xsram2.                 sram               1.00 
      804 xword96.xsram3.                 sram               1.00 
      805 xword96.xsram4.                 sram               1.00 
      806 xword96.xsram5.                 sram               1.00 
      807 xword96.xsram6.                 sram               1.00 
      808 xword96.xsram7.                 sram               1.00 
      809 xword97.xsram1.                 sram               1.00 
      810 xword97.xsram2.                 sram               1.00 
      811 xword97.xsram3.                 sram               1.00 
      812 xword97.xsram4.                 sram               1.00 
      813 xword97.xsram5.                 sram               1.00 
      814 xword97.xsram6.                 sram               1.00 
      815 xword97.xsram7.                 sram               1.00 
      816 xword98.xsram1.                 sram               1.00 
      817 xword98.xsram2.                 sram               1.00 
      818 xword98.xsram3.                 sram               1.00 
      819 xword98.xsram4.                 sram               1.00 
      820 xword98.xsram5.                 sram               1.00 
      821 xword98.xsram6.                 sram               1.00 
      822 xword98.xsram7.                 sram               1.00 
      823 xword99.xsram1.                 sram               1.00 
      824 xword99.xsram2.                 sram               1.00 
      825 xword99.xsram3.                 sram               1.00 
      826 xword99.xsram4.                 sram               1.00 
      827 xword99.xsram5.                 sram               1.00 
      828 xword99.xsram6.                 sram               1.00 
      829 xword99.xsram7.                 sram               1.00 
      830 xword100.xsram1.                sram               1.00 
      831 xword100.xsram2.                sram               1.00 
      832 xword100.xsram3.                sram               1.00 
      833 xword100.xsram4.                sram               1.00 
      834 xword100.xsram5.                sram               1.00 
      835 xword100.xsram6.                sram               1.00 
      836 xword100.xsram7.                sram               1.00 
      837 xword101.xsram1.                sram               1.00 
      838 xword101.xsram2.                sram               1.00 
      839 xword101.xsram3.                sram               1.00 
      840 xword101.xsram4.                sram               1.00 
      841 xword101.xsram5.                sram               1.00 
      842 xword101.xsram6.                sram               1.00 
      843 xword101.xsram7.                sram               1.00 
      844 xword102.xsram1.                sram               1.00 
      845 xword102.xsram2.                sram               1.00 
      846 xword102.xsram3.                sram               1.00 
      847 xword102.xsram4.                sram               1.00 
      848 xword102.xsram5.                sram               1.00 
      849 xword102.xsram6.                sram               1.00 
      850 xword102.xsram7.                sram               1.00 
      851 xword103.xsram1.                sram               1.00 
      852 xword103.xsram2.                sram               1.00 
      853 xword103.xsram3.                sram               1.00 
      854 xword103.xsram4.                sram               1.00 
      855 xword103.xsram5.                sram               1.00 
      856 xword103.xsram6.                sram               1.00 
      857 xword103.xsram7.                sram               1.00 
      858 xword104.xsram1.                sram               1.00 
      859 xword104.xsram2.                sram               1.00 
      860 xword104.xsram3.                sram               1.00 
      861 xword104.xsram4.                sram               1.00 
      862 xword104.xsram5.                sram               1.00 
      863 xword104.xsram6.                sram               1.00 
      864 xword104.xsram7.                sram               1.00 
      865 xword105.xsram1.                sram               1.00 
      866 xword105.xsram2.                sram               1.00 
      867 xword105.xsram3.                sram               1.00 
      868 xword105.xsram4.                sram               1.00 
      869 xword105.xsram5.                sram               1.00 
      870 xword105.xsram6.                sram               1.00 
      871 xword105.xsram7.                sram               1.00 
      872 xword106.xsram1.                sram               1.00 
      873 xword106.xsram2.                sram               1.00 
      874 xword106.xsram3.                sram               1.00 
      875 xword106.xsram4.                sram               1.00 
      876 xword106.xsram5.                sram               1.00 
      877 xword106.xsram6.                sram               1.00 
      878 xword106.xsram7.                sram               1.00 
      879 xword107.xsram1.                sram               1.00 
      880 xword107.xsram2.                sram               1.00 
      881 xword107.xsram3.                sram               1.00 
      882 xword107.xsram4.                sram               1.00 
      883 xword107.xsram5.                sram               1.00 
      884 xword107.xsram6.                sram               1.00 
      885 xword107.xsram7.                sram               1.00 
      886 xword108.xsram1.                sram               1.00 
      887 xword108.xsram2.                sram               1.00 
      888 xword108.xsram3.                sram               1.00 
      889 xword108.xsram4.                sram               1.00 
      890 xword108.xsram5.                sram               1.00 
      891 xword108.xsram6.                sram               1.00 
      892 xword108.xsram7.                sram               1.00 
      893 xword109.xsram1.                sram               1.00 
      894 xword109.xsram2.                sram               1.00 
      895 xword109.xsram3.                sram               1.00 
      896 xword109.xsram4.                sram               1.00 
      897 xword109.xsram5.                sram               1.00 
      898 xword109.xsram6.                sram               1.00 
      899 xword109.xsram7.                sram               1.00 
      900 xword110.xsram1.                sram               1.00 
      901 xword110.xsram2.                sram               1.00 
      902 xword110.xsram3.                sram               1.00 
      903 xword110.xsram4.                sram               1.00 
      904 xword110.xsram5.                sram               1.00 
      905 xword110.xsram6.                sram               1.00 
      906 xword110.xsram7.                sram               1.00 
      907 xword111.xsram1.                sram               1.00 
      908 xword111.xsram2.                sram               1.00 
      909 xword111.xsram3.                sram               1.00 
      910 xword111.xsram4.                sram               1.00 
      911 xword111.xsram5.                sram               1.00 
      912 xword111.xsram6.                sram               1.00 
      913 xword111.xsram7.                sram               1.00 
      914 xword112.xsram1.                sram               1.00 
      915 xword112.xsram2.                sram               1.00 
      916 xword112.xsram3.                sram               1.00 
      917 xword112.xsram4.                sram               1.00 
      918 xword112.xsram5.                sram               1.00 
      919 xword112.xsram6.                sram               1.00 
      920 xword112.xsram7.                sram               1.00 
      921 xword113.xsram1.                sram               1.00 
      922 xword113.xsram2.                sram               1.00 
      923 xword113.xsram3.                sram               1.00 
      924 xword113.xsram4.                sram               1.00 
      925 xword113.xsram5.                sram               1.00 
      926 xword113.xsram6.                sram               1.00 
      927 xword113.xsram7.                sram               1.00 
      928 xword114.xsram1.                sram               1.00 
      929 xword114.xsram2.                sram               1.00 
      930 xword114.xsram3.                sram               1.00 
      931 xword114.xsram4.                sram               1.00 
      932 xword114.xsram5.                sram               1.00 
      933 xword114.xsram6.                sram               1.00 
      934 xword114.xsram7.                sram               1.00 
      935 xword115.xsram1.                sram               1.00 
      936 xword115.xsram2.                sram               1.00 
      937 xword115.xsram3.                sram               1.00 
      938 xword115.xsram4.                sram               1.00 
      939 xword115.xsram5.                sram               1.00 
      940 xword115.xsram6.                sram               1.00 
      941 xword115.xsram7.                sram               1.00 
      942 xword116.xsram1.                sram               1.00 
      943 xword116.xsram2.                sram               1.00 
      944 xword116.xsram3.                sram               1.00 
      945 xword116.xsram4.                sram               1.00 
      946 xword116.xsram5.                sram               1.00 
      947 xword116.xsram6.                sram               1.00 
      948 xword116.xsram7.                sram               1.00 
      949 xword117.xsram1.                sram               1.00 
      950 xword117.xsram2.                sram               1.00 
      951 xword117.xsram3.                sram               1.00 
      952 xword117.xsram4.                sram               1.00 
      953 xword117.xsram5.                sram               1.00 
      954 xword117.xsram6.                sram               1.00 
      955 xword117.xsram7.                sram               1.00 
      956 xword118.xsram1.                sram               1.00 
      957 xword118.xsram2.                sram               1.00 
      958 xword118.xsram3.                sram               1.00 
      959 xword118.xsram4.                sram               1.00 
      960 xword118.xsram5.                sram               1.00 
      961 xword118.xsram6.                sram               1.00 
      962 xword118.xsram7.                sram               1.00 
      963 xword119.xsram1.                sram               1.00 
      964 xword119.xsram2.                sram               1.00 
      965 xword119.xsram3.                sram               1.00 
      966 xword119.xsram4.                sram               1.00 
      967 xword119.xsram5.                sram               1.00 
      968 xword119.xsram6.                sram               1.00 
      969 xword119.xsram7.                sram               1.00 
      970 xword120.xsram1.                sram               1.00 
      971 xword120.xsram2.                sram               1.00 
      972 xword120.xsram3.                sram               1.00 
      973 xword120.xsram4.                sram               1.00 
      974 xword120.xsram5.                sram               1.00 
      975 xword120.xsram6.                sram               1.00 
      976 xword120.xsram7.                sram               1.00 
      977 xword121.xsram1.                sram               1.00 
      978 xword121.xsram2.                sram               1.00 
      979 xword121.xsram3.                sram               1.00 
      980 xword121.xsram4.                sram               1.00 
      981 xword121.xsram5.                sram               1.00 
      982 xword121.xsram6.                sram               1.00 
      983 xword121.xsram7.                sram               1.00 
      984 xword122.xsram1.                sram               1.00 
      985 xword122.xsram2.                sram               1.00 
      986 xword122.xsram3.                sram               1.00 
      987 xword122.xsram4.                sram               1.00 
      988 xword122.xsram5.                sram               1.00 
      989 xword122.xsram6.                sram               1.00 
      990 xword122.xsram7.                sram               1.00 
      991 xword123.xsram1.                sram               1.00 
      992 xword123.xsram2.                sram               1.00 
      993 xword123.xsram3.                sram               1.00 
      994 xword123.xsram4.                sram               1.00 
      995 xword123.xsram5.                sram               1.00 
      996 xword123.xsram6.                sram               1.00 
      997 xword123.xsram7.                sram               1.00 
      998 xword124.xsram1.                sram               1.00 
      999 xword124.xsram2.                sram               1.00 
     1000 xword124.xsram3.                sram               1.00 
     1001 xword124.xsram4.                sram               1.00 
     1002 xword124.xsram5.                sram               1.00 
     1003 xword124.xsram6.                sram               1.00 
     1004 xword124.xsram7.                sram               1.00 
     1005 xword125.xsram1.                sram               1.00 
     1006 xword125.xsram2.                sram               1.00 
     1007 xword125.xsram3.                sram               1.00 
     1008 xword125.xsram4.                sram               1.00 
     1009 xword125.xsram5.                sram               1.00 
     1010 xword125.xsram6.                sram               1.00 
     1011 xword125.xsram7.                sram               1.00 
     1012 xword126.xsram1.                sram               1.00 
     1013 xword126.xsram2.                sram               1.00 
     1014 xword126.xsram3.                sram               1.00 
     1015 xword126.xsram4.                sram               1.00 
     1016 xword126.xsram5.                sram               1.00 
     1017 xword126.xsram6.                sram               1.00 
     1018 xword126.xsram7.                sram               1.00 
     1019 xword127.xsram1.                sram               1.00 
     1020 xword127.xsram2.                sram               1.00 
     1021 xword127.xsram3.                sram               1.00 
     1022 xword127.xsram4.                sram               1.00 
     1023 xword127.xsram5.                sram               1.00 
     1024 xword127.xsram6.                sram               1.00 
     1025 xword127.xsram7.                sram               1.00 
     1026 xword128.xsram1.                sram               1.00 
     1027 xword128.xsram2.                sram               1.00 
     1028 xword128.xsram3.                sram               1.00 
     1029 xword128.xsram4.                sram               1.00 
     1030 xword128.xsram5.                sram               1.00 
     1031 xword128.xsram6.                sram               1.00 
     1032 xword128.xsram7.                sram               1.00 
  **warning** (c:\onedrive\desktop\ad. vlsi project-phase2\code1\finalsram.sp:10) Both nodes of element vgnd are connected together; Line ignored.
 

 Warning: Pd = 0 is less than W.
 Model:    0:nmos
 W = 7.1e-007, L = 3.4e-007

 
  **warning** (c:\onedrive\desktop\ad. vlsi project-phase2\code1\finalsram.sp:1329) Only 1 connection at node bl11 called in element xword1.xsram1.m6.

 **warning** the following singular supplies were terminated to 1 meg resistor 
   supply       node1            node2
  v_in1                   0:bl_1             defined in subckt 0                     0:0                defined in subckt 0               
  v_in1_2                 0:bl_2             defined in subckt 0                     0:0                defined in subckt 0               
  v_in1_3                 0:bl_3             defined in subckt 0                     0:0                defined in subckt 0               
  v_in1_4                 0:bl_4             defined in subckt 0                     0:0                defined in subckt 0               
  v_in1_5                 0:bl_5             defined in subckt 0                     0:0                defined in subckt 0               
  v_in1_6                 0:bl_6             defined in subckt 0                     0:0                defined in subckt 0               
  v_in1_7                 0:bl_7             defined in subckt 0                     0:0                defined in subckt 0               
      
 **info** set option symb=1 internally to help for convergence.
 *****************************************************************
 ******  option summary
 ******
 runlvl  = 3         bypass  = 2         
  Opening plot unit= 79
 file=c:\onedrive\desktop\ad. vlsi project-phase2\code1\finalsram.pa0          

1****** HSPICE -- D-2010.03-SP1 32-BIT (May 26 2010) winnt ******               
 ******  
 *hspice sram 32*128

  ******  operating point information tnom=  25.000 temp=  25.000 *****
 ***** operating point status is all       simulation time is     0.     
       node    =voltage         node    =voltage         node    =voltage

 +   0:bl1_not =   0.         0:bl2_not =   0.         0:bl3_not =   0.     
 +   0:bl4_not =   1.8000     0:bl5_not =   1.8000     0:bl6_not =   1.8000 
 +   0:bl7_not =   1.8000     0:bl_1    =   1.8000     0:bl_2    =   1.8000 
 +   0:bl_3    =   1.8000     0:bl_4    =   0.         0:bl_5    =   0.     
 +   0:bl_6    =   0.         0:bl_7    =   0.         0:in11    =   0.     
 +   0:in11!   =   1.8000     0:in22    =   0.         0:in22!   =   1.8000 
 +   0:in33    =   0.         0:in33!   =   1.8000     0:in44    =   0.     
 +   0:in44!   =   1.8000     0:in55    =   0.         0:in55!   =   1.8000 
 +   0:in66    =   0.         0:in66!   =   1.8000     0:in77    =   0.     
 +   0:in77!   =   1.8000     0:q100_1  =   1.8000     0:q100_1no=   7.7707n
 +   0:q100_2  =   1.8000     0:q100_2no=   7.7707n    0:q100_3  =   1.8000 
 +   0:q100_3no=   7.7707n    0:q100_4  =   1.8000     0:q100_4no=  42.4788n
 +   0:q100_5  =   1.8000     0:q100_5no=  42.4788n    0:q100_6  =   1.8000 
 +   0:q100_6no=  42.4788n    0:q100_7  =   1.8000     0:q100_7no=  42.4788n
 +   0:q101_1  =   1.8000     0:q101_1no=   7.7707n    0:q101_2  =   1.8000 
 +   0:q101_2no=   7.7707n    0:q101_3  =   1.8000     0:q101_3no=   7.7707n
 +   0:q101_4  =   1.8000     0:q101_4no=  98.3839n    0:q101_5  =   1.8000 
 +   0:q101_5no=  98.3839n    0:q101_6  =   1.8000     0:q101_6no=  98.3839n
 +   0:q101_7  =   1.8000     0:q101_7no=  98.3839n    0:q102_1  =   1.8000 
 +   0:q102_1no=   7.7707n    0:q102_2  =   1.8000     0:q102_2no=   7.7707n
 +   0:q102_3  =   1.8000     0:q102_3no=   7.7707n    0:q102_4  =   1.8000 
 +   0:q102_4no=  42.4788n    0:q102_5  =   1.8000     0:q102_5no=  42.4788n
 +   0:q102_6  =   1.8000     0:q102_6no=  42.4788n    0:q102_7  =   1.8000 
 +   0:q102_7no=  42.4788n    0:q103_1  =   1.8000     0:q103_1no=   7.7707n
 +   0:q103_2  =   1.8000     0:q103_2no=   7.7707n    0:q103_3  =   1.8000 
 +   0:q103_3no=   7.7707n    0:q103_4  =   1.8000     0:q103_4no=  42.4788n
 +   0:q103_5  =   1.8000     0:q103_5no=  42.4788n    0:q103_6  =   1.8000 
 +   0:q103_6no=  42.4788n    0:q103_7  =   1.8000     0:q103_7no=  42.4788n
 +   0:q104_1  =   1.8000     0:q104_1no=   7.7707n    0:q104_2  =   1.8000 
 +   0:q104_2no=   7.7707n    0:q104_3  =   1.8000     0:q104_3no=   7.7707n
 +   0:q104_4  =   1.8000     0:q104_4no=  28.0999n    0:q104_5  =   1.8000 
 +   0:q104_5no=  28.0999n    0:q104_6  =   1.8000     0:q104_6no=  28.0999n
 +   0:q104_7  =   1.8000     0:q104_7no=  28.0999n    0:q105_1  =   1.8000 
 +   0:q105_1no=   7.7707n    0:q105_2  =   1.8000     0:q105_2no=   7.7707n
 +   0:q105_3  =   1.8000     0:q105_3no=   7.7707n    0:q105_4  =   1.8000 
 +   0:q105_4no=  98.3839n    0:q105_5  =   1.8000     0:q105_5no=  98.3839n
 +   0:q105_6  =   1.8000     0:q105_6no=  98.3839n    0:q105_7  =   1.8000 
 +   0:q105_7no=  98.3839n    0:q106_1  =   1.8000     0:q106_1no=   7.7707n
 +   0:q106_2  =   1.8000     0:q106_2no=   7.7707n    0:q106_3  =   1.8000 
 +   0:q106_3no=   7.7707n    0:q106_4  =   1.8000     0:q106_4no=  42.4788n
 +   0:q106_5  =   1.8000     0:q106_5no=  42.4788n    0:q106_6  =   1.8000 
 +   0:q106_6no=  42.4788n    0:q106_7  =   1.8000     0:q106_7no=  42.4788n
 +   0:q107_1  =   1.8000     0:q107_1no=   7.7707n    0:q107_2  =   1.8000 
 +   0:q107_2no=   7.7707n    0:q107_3  =   1.8000     0:q107_3no=   7.7707n
 +   0:q107_4  =   1.8000     0:q107_4no=  42.4788n    0:q107_5  =   1.8000 
 +   0:q107_5no=  42.4788n    0:q107_6  =   1.8000     0:q107_6no=  42.4788n
 +   0:q107_7  =   1.8000     0:q107_7no=  42.4788n    0:q108_1  =   1.8000 
 +   0:q108_1no=   7.7707n    0:q108_2  =   1.8000     0:q108_2no=   7.7707n
 +   0:q108_3  =   1.8000     0:q108_3no=   7.7707n    0:q108_4  =   1.8000 
 +   0:q108_4no=  28.0999n    0:q108_5  =   1.8000     0:q108_5no=  28.0999n
 +   0:q108_6  =   1.8000     0:q108_6no=  28.0999n    0:q108_7  =   1.8000 
 +   0:q108_7no=  28.0999n    0:q109_1  =   1.8000     0:q109_1no=   7.7707n
 +   0:q109_2  =   1.8000     0:q109_2no=   7.7707n    0:q109_3  =   1.8000 
 +   0:q109_3no=   7.7707n    0:q109_4  =   1.8000     0:q109_4no=  42.4788n
 +   0:q109_5  =   1.8000     0:q109_5no=  42.4788n    0:q109_6  =   1.8000 
 +   0:q109_6no=  42.4788n    0:q109_7  =   1.8000     0:q109_7no=  42.4788n
 +   0:q10_1   =   1.8000     0:q10_1not=   7.7705n    0:q10_2   =   1.8000 
 +   0:q10_2not=   7.7705n    0:q10_3   =   1.8000     0:q10_3not=   7.7705n
 +   0:q10_4   =   1.8000     0:q10_4not= 777.6642n    0:q10_5   =   1.8000 
 +   0:q10_5not= 777.6642n    0:q10_6   =   1.8000     0:q10_6not= 777.6642n
 +   0:q10_7   =   1.8000     0:q10_7not= 777.6642n    0:q110_1  =   1.8000 
 +   0:q110_1no=   7.7707n    0:q110_2  =   1.8000     0:q110_2no=   7.7707n
 +   0:q110_3  =   1.8000     0:q110_3no=   7.7707n    0:q110_4  =   1.8000 
 +   0:q110_4no=  28.0999n    0:q110_5  =   1.8000     0:q110_5no=  28.0999n
 +   0:q110_6  =   1.8000     0:q110_6no=  28.0999n    0:q110_7  =   1.8000 
 +   0:q110_7no=  28.0999n    0:q111_1  =   1.8000     0:q111_1no=   7.7707n
 +   0:q111_2  =   1.8000     0:q111_2no=   7.7707n    0:q111_3  =   1.8000 
 +   0:q111_3no=   7.7707n    0:q111_4  =   1.8000     0:q111_4no=  28.0999n
 +   0:q111_5  =   1.8000     0:q111_5no=  28.0999n    0:q111_6  =   1.8000 
 +   0:q111_6no=  28.0999n    0:q111_7  =   1.8000     0:q111_7no=  28.0999n
 +   0:q112_1  =   1.8000     0:q112_1no=   7.7707n    0:q112_2  =   1.8000 
 +   0:q112_2no=   7.7707n    0:q112_3  =   1.8000     0:q112_3no=   7.7707n
 +   0:q112_4  =   1.8000     0:q112_4no=  22.2929n    0:q112_5  =   1.8000 
 +   0:q112_5no=  22.2929n    0:q112_6  =   1.8000     0:q112_6no=  22.2929n
 +   0:q112_7  =   1.8000     0:q112_7no=  22.2929n    0:q113_1  =   1.8000 
 +   0:q113_1no=   7.7707n    0:q113_2  =   1.8000     0:q113_2no=   7.7707n
 +   0:q113_3  =   1.8000     0:q113_3no=   7.7707n    0:q113_4  =   1.8000 
 +   0:q113_4no=  98.3839n    0:q113_5  =   1.8000     0:q113_5no=  98.3839n
 +   0:q113_6  =   1.8000     0:q113_6no=  98.3839n    0:q113_7  =   1.8000 
 +   0:q113_7no=  98.3839n    0:q114_1  =   1.8000     0:q114_1no=   7.7707n
[...]
  cgtot         5.8150f       3.6261f       1.4468f       2.7473f
  cstot         1.5688f       1.1760f     505.8726a       1.1635f
  cbtot         1.1985f       1.2665f     442.9920a     584.8641a
  cgs           2.9000f       1.1846f     503.9357a       1.1300f
  cgd           2.8288f       1.1750f     499.8385a       1.5309f



 subckt      xword4.xsr    xword4.xsr    xword4.xsr    xword4.xsr
 element   158:m1        158:m2        158:m3        158:m4      
 model       0:nmos        0:pmos        0:nmos        0:pmos    
 region          Linear        Cutoff        Cutoff        Linear
  id            9.4666p      -5.8668p       4.9575p     -11.2575p
  ibs           0.            0.            0.            0.     
  ibd           0.            0.            0.            0.     
  vgs           1.8000      -28.1483n       7.7705n      -1.8000 
  vds           7.7705n      -1.8000        1.8000      -28.1483n
  vbs           0.            0.            0.            0.     
  vth         481.5108m    -455.4835m     473.0779m    -456.9605m
  vdsat       726.7137m     -36.2406m      36.1185m    -990.4119m
  vod           1.3185      455.4835m    -473.0779m      -1.3430 
  beta          1.1023m     453.5720u       1.2704m     343.4269u
  gam eff     583.5032m     524.5822m     583.5032m     524.5822m
  gm            3.5776p     156.6063p     135.0176p       5.2590p
  gds           1.2183m       1.1531p       1.3936p     399.9342u
  gmb           2.1143p      59.3397p      47.6209p       3.0528p
  cdtot         2.9241f       1.1760f       1.0329f       3.4395f
  cgtot         5.8150f       3.6261f       3.2025f       6.7151f
  cstot         1.5688f       1.1760f       1.0329f       1.7830f
  cbtot         1.1985f       1.2665f       1.1596f       1.3489f
  cgs           2.9000f       1.1846f       1.0151f       3.4702f
  cgd           2.8288f       1.1750f       1.0278f       3.2822f



 subckt      xword4.xsr    xword4.xsr    xword4.xsr    xword4.xsr
 element   158:m5        158:m6        159:m1        159:m2      
 model       0:nmos        0:nmos        0:nmos        0:pmos    
 region          Cutoff        Cutoff        Linear        Cutoff
  id          171.0297a    -1.760e-24       9.4666p      -5.8668p
  ibs           0.            0.            0.            0.     
  ibd           0.            0.            0.            0.     
  vgs         214.6040m      -1.5854        1.8000      -28.1483n
  vds           7.7705n    -900.0000m       7.7705n      -1.8000 
  vbs           0.           -1.8000        0.            0.     
  vth         478.0696m     688.8337m     481.5108m    -455.4835m
  vdsat        36.2337m      40.7803m     726.7137m     -36.2406m
  vod        -263.4655m      -2.2742        1.3185      455.4835m
  beta        631.5557u     643.8813u       1.1023m     453.5720u
  gam eff     579.7955m     574.7198m     583.5032m     524.5822m
  gm            4.5804f     5.266e-23       3.5776p     156.6063p
  gds          22.0100n     6.003e-25       1.2183m       1.1531p
  gmb           1.4598f     1.477e-23       2.1143p      59.3397p
  cdtot       506.5062a     505.8726a       2.9241f       1.1760f
  cgtot         1.5163f       1.5101f       5.8150f       3.6261f
  cstot       506.1739a     505.8726a       1.5688f       1.1760f
  cbtot       516.1514a     508.4006a       1.1985f       1.2665f
  cgs         496.7299a     503.4888a       2.9000f       1.1846f
  cgd         503.8950a     498.2592a       2.8288f       1.1750f



 subckt      xword4.xsr    xword4.xsr    xword4.xsr    xword4.xsr
 element   159:m3        159:m4        159:m5        159:m6      
 model       0:nmos        0:pmos        0:nmos        0:nmos    
 region          Cutoff        Linear        Cutoff        Cutoff
  id            4.9575p     -11.2575p     171.0297a    -1.760e-24
  ibs           0.            0.            0.            0.     
  ibd           0.            0.            0.            0.     
  vgs           7.7705n      -1.8000      214.6040m      -1.5854 
  vds           1.8000      -28.1483n       7.7705n    -900.0000m
  vbs           0.            0.            0.           -1.8000 
  vth         473.0779m    -456.9605m     478.0696m     688.8337m
  vdsat        36.1185m    -990.4119m      36.2337m      40.7803m
  vod        -473.0779m      -1.3430     -263.4655m      -2.2742 
  beta          1.2704m     343.4269u     631.5557u     643.8813u
  gam eff     583.5032m     524.5822m     579.7955m     574.7198m
  gm          135.0176p       5.2590p       4.5804f     5.266e-23
  gds           1.3936p     399.9342u      22.0100n     6.003e-25
  gmb          47.6209p       3.0528p       1.4598f     1.477e-23
  cdtot         1.0329f       3.4395f     506.5062a     505.8726a
  cgtot         3.2025f       6.7151f       1.5163f       1.5101f
  cstot         1.0329f       1.7830f     506.1739a     505.8726a
  cbtot         1.1596f       1.3489f     516.1514a     508.4006a
  cgs           1.0151f       3.4702f     496.7299a     503.4888a
  cgd           1.0278f       3.2822f     503.8950a     498.2592a



 subckt      xword4.xsr    xword4.xsr    xword4.xsr    xword4.xsr
 element   160:m1        160:m2        160:m3        160:m4      
 model       0:nmos        0:pmos        0:nmos        0:pmos    
 region          Linear        Cutoff        Cutoff        Linear
  id            9.4666p      -5.8668p       4.9575p     -11.2575p
  ibs           0.            0.            0.            0.     
  ibd           0.            0.            0.            0.     
  vgs           1.8000      -28.1483n       7.7705n      -1.8000 
  vds           7.7705n      -1.8000        1.8000      -28.1483n
  vbs           0.            0.            0.            0.     
  vth         481.5108m    -455.4835m     473.0779m    -456.9605m
  vdsat       726.7137m     -36.2406m      36.1185m    -990.4119m
  vod           1.3185      455.4835m    -473.0779m      -1.3430 
  beta          1.1023m     453.5720u       1.2704m     343.4269u
  gam eff     583.5032m     524.5822m     583.5032m     524.5822m
  gm            3.5776p     156.6063p     135.0176p       5.2590p
  gds           1.2183m       1.1531p       1.3936p     399.9342u
  gmb           2.1143p      59.3397p      47.6209p       3.0528p
  cdtot         2.9241f       1.1760f       1.0329f       3.4395f
  cgtot         5.8150f       3.6261f       3.2025f       6.7151f
  cstot         1.5688f       1.1760f       1.0329f       1.7830f
  cbtot         1.1985f       1.2665f       1.1596f       1.3489f
  cgs           2.9000f       1.1846f       1.0151f       3.4702f
  cgd           2.8288f       1.1750f       1.0278f       3.2822f



 subckt      xword4.xsr    xword4.xsr    xword4.xsr    xword4.xsr
 element   160:m5        160:m6        161:m1        161:m2      
 model       0:nmos        0:nmos        0:nmos        0:pmos    
 region          Cutoff        Cutoff        Linear        Cutoff
  id          171.0297a    -1.760e-24     947.4055p      -5.8668p
  ibs           0.            0.            0.            0.     
  ibd           0.            0.            0.            0.     
  vgs         214.6040m      -1.5854        1.8000      -28.1485n
  vds           7.7705n    -900.0000m     777.6642n      -1.8000 
  vbs           0.           -1.8000        0.            0.     
  vth         478.0696m     688.8337m     481.5107m    -455.4835m
  vdsat        36.2337m      40.7803m     726.7137m     -36.2406m
  vod        -263.4655m      -2.2742        1.3185      455.4835m
  beta        631.5557u     643.8813u       1.1023m     453.5720u
  gam eff     579.7955m     574.7198m     583.5032m     524.5822m
  gm            4.5804f     5.266e-23     358.0409p     156.6063p
  gds          22.0100n     6.003e-25       1.2183m       1.1531p
  gmb           1.4598f     1.477e-23     211.5954p      59.3397p
  cdtot       506.5062a     505.8726a       2.9241f       1.1760f
  cgtot         1.5163f       1.5101f       5.8150f       3.6261f
  cstot       506.1739a     505.8726a       1.5688f       1.1760f
  cbtot       516.1514a     508.4006a       1.1985f       1.2665f
  cgs         496.7299a     503.4888a       2.9000f       1.1846f
  cgd         503.8950a     498.2592a       2.8288f       1.1750f



 subckt      xword4.xsr    xword4.xsr    xword4.xsr    xword4.xsr
 element   161:m3        161:m4        161:m5        161:m6      
 model       0:nmos        0:pmos        0:nmos        0:nmos    
 region          Cutoff        Linear        Cutoff        Cutoff
  id            4.9576p     -11.2576p    -936.1387p    -1.760e-24
  ibs           0.            0.            0.            0.     
  ibd           0.            0.            0.            0.     
  vgs         777.6642n      -1.8000       -1.5854       -1.5854 
  vds           1.8000      -28.1485n      -1.8000     -900.0000m
  vbs           0.            0.           -1.8000       -1.8000 
  vth         473.0779m    -456.9605m     468.4018m     688.8337m
  vdsat        36.1185m    -990.4113m      36.2441m      40.7803m
  vod        -473.0771m      -1.3430       -2.0538       -2.2742 
  beta          1.2704m     343.4269u     630.3315u     643.8813u
  gam eff     583.5032m     524.5822m     579.7955m     574.7198m
  gm          135.0204p       5.2590p      25.0265n     5.266e-23
  gds           1.3936p     399.9340u     277.4729p     6.003e-25
  gmb          47.6219p       3.0528p       7.7798n     1.477e-23
  cdtot         1.0329f       3.4395f     506.6864a     505.8726a
  cgtot         3.2025f       6.7151f       1.5144f       1.5101f
  cstot         1.0329f       1.7830f     505.8693a     505.8726a
  cbtot         1.1596f       1.3489f     513.7269a     508.4006a
  cgs           1.0151f       3.4702f     503.2949a     503.4888a
  cgd           1.0278f       3.2822f     497.7542a     498.2592a



 subckt      xword4.xsr    xword4.xsr    xword4.xsr    xword4.xsr
 element   162:m1        162:m2        162:m3        162:m4      
 model       0:nmos        0:pmos        0:nmos        0:pmos    
 region          Linear        Cutoff        Cutoff        Linear
  id          947.4055p      -5.8668p       4.9576p     -11.2576p
  ibs           0.            0.            0.            0.     
  ibd           0.            0.            0.            0.     
  vgs           1.8000      -28.1485n     777.6642n      -1.8000 
  vds         777.6642n      -1.8000        1.8000      -28.1485n
  vbs           0.            0.            0.            0.     
  vth         481.5107m    -455.4835m     473.0779m    -456.9605m
  vdsat       726.7137m     -36.2406m      36.1185m    -990.4113m
  vod           1.3185      455.4835m    -473.0771m      -1.3430 
  beta          1.1023m     453.5720u       1.2704m     343.4269u
  gam eff     583.5032m     524.5822m     583.5032m     524.5822m
  gm          358.0409p     156.6063p     135.0204p       5.2590p
  gds           1.2183m       1.1531p       1.3936p     399.9340u
  gmb         211.5954p      59.3397p      47.6219p       3.0528p
  cdtot         2.9241f       1.1760f       1.0329f       3.4395f
  cgtot         5.8150f       3.6261f       3.2025f       6.7151f
  cstot         1.5688f       1.1760f       1.0329f       1.7830f
  cbtot         1.1985f       1.2665f       1.1596f       1.3489f
  cgs           2.9000f       1.1846f       1.0151f       3.4702f
  cgd           2.8288f       1.1750f       1.0278f       3.2822f



 subckt      xword4.xsr    xword4.xsr    xword4.xsr    xword4.xsr
 element   162:m5        162:m6        163:m1        163:m2      
 model       0:nmos        0:nmos        0:nmos        0:pmos    
 region          Cutoff        Cutoff        Linear        Cutoff
  id         -936.1387p    -1.760e-24     947.4055p      -5.8668p
  ibs           0.            0.            0.            0.     
  ibd           0.            0.            0.            0.     
  vgs          -1.5854       -1.5854        1.8000      -28.1485n
  vds          -1.8000     -900.0000m     777.6642n      -1.8000 
  vbs          -1.8000       -1.8000        0.            0.     
  vth         468.4018m     688.8337m     481.5107m    -455.4835m
  vdsat        36.2441m      40.7803m     726.7137m     -36.2406m
  vod          -2.0538       -2.2742        1.3185      455.4835m
  beta        630.3315u     643.8813u       1.1023m     453.5720u
  gam eff     579.7955m     574.7198m     583.5032m     524.5822m
  gm           25.0265n     5.266e-23     358.0409p     156.6063p
  gds         277.4729p     6.003e-25       1.2183m       1.1531p
  gmb           7.7798n     1.477e-23     211.5954p      59.3397p
  cdtot       506.6864a     505.8726a       2.9241f       1.1760f
  cgtot         1.5144f       1.5101f       5.8150f       3.6261f
  cstot       505.8693a     505.8726a       1.5688f       1.1760f
  cbtot       513.7269a     508.4006a       1.1985f       1.2665f
  cgs         503.2949a     503.4888a       2.9000f       1.1846f
  cgd         497.7542a     498.2592a       2.8288f       1.1750f



 subckt      xword4.xsr    xword4.xsr    xword4.xsr    xword4.xsr
 element   163:m3        163:m4        163:m5        163:m6      
 model       0:nmos        0:pmos        0:nmos        0:nmos    
 region          Cutoff        Linear        Cutoff        Cutoff
  id            4.9576p     -11.2576p    -936.1387p    -1.760e-24
  ibs           0.            0.            0.            0.     
  ibd           0.            0.            0.            0.     
  vgs         777.6642n      -1.8000       -1.5854       -1.5854 
  vds           1.8000      -28.1485n      -1.8000     -900.0000m
  vbs           0.            0.           -1.8000       -1.8000 
  vth         473.0779m    -456.9605m     468.4018m     688.8337m
  vdsat        36.1185m    -990.4113m      36.2441m      40.7803m
  vod        -473.0771m      -1.3430       -2.0538       -2.2742 
  beta          1.2704m     343.4269u     630.3315u     643.8813u
  gam eff     583.5032m     524.5822m     579.7955m     574.7198m
  gm          135.0204p       5.2590p      25.0265n     5.266e-23
  gds           1.3936p     399.9340u     277.4729p     6.003e-25
  gmb          47.6219p       3.0528p       7.7798n     1.477e-23
  cdtot         1.0329f       3.4395f     506.6864a     505.8726a
  cgtot         3.2025f       6.7151f       1.5144f       1.5101f
  cstot         1.0329f       1.7830f     505.8693a     505.8726a
  cbtot         1.1596f       1.3489f     513.7269a     508.4006a
  cgs           1.0151f       3.4702f     503.2949a     503.4888a
  cgd           1.0278f       3.2822f     497.7542a     498.2592a



 subckt      xword4.xsr    xword4.xsr    xword4.xsr    xword4.xsr
 element   164:m1        164:m2        164:m3        164:m4      
 model       0:nmos        0:pmos        0:nmos        0:pmos    
 region          Linear        Cutoff        Cutoff        Linear
  id          947.4055p      -5.8668p       4.9576p     -11.2576p
  ibs           0.            0.            0.            0.     
  ibd           0.            0.            0.            0.     
  vgs           1.8000      -28.1485n     777.6642n      -1.8000 
  vds         777.6642n      -1.8000        1.8000      -28.1485n
  vbs           0.            0.            0.            0.     
  vth         481.5107m    -455.4835m     473.0779m    -456.9605m
  vdsat       726.7137m     -36.2406m      36.1185m    -990.4113m
  vod           1.3185      455.4835m    -473.0771m      -1.3430 
  beta          1.1023m     453.5720u       1.2704m     343.4269u
  gam eff     583.5032m     524.5822m     583.5032m     524.5822m
  gm          358.0409p     156.6063p     135.0204p       5.2590p
  gds           1.2183m       1.1531p       1.3936p     399.9340u
  gmb         211.5954p      59.3397p      47.6219p       3.0528p
  cdtot         2.9241f       1.1760f       1.0329f       3.4395f
  cgtot         5.8150f       3.6261f       3.2025f       6.7151f
  cstot         1.5688f       1.1760f       1.0329f       1.7830f
  cbtot         1.1985f       1.2665f       1.1596f       1.3489f
  cgs           2.9000f       1.1846f       1.0151f       3.4702f
  cgd           2.8288f       1.1750f       1.0278f       3.2822f



 subckt      xword4.xsr    xword4.xsr    xword5.xsr    xword5.xsr
 element   164:m5        164:m6        165:m1        165:m2      
 model       0:nmos        0:nmos        0:nmos        0:pmos    
 region          Cutoff        Cutoff        Cutoff        Linear
  id         -936.1387p    -1.760e-24       4.9457p      -3.3546u
  ibs           0.            0.            0.            0.     
  ibd           0.            0.            0.            0.     
  vgs          -1.5854       -1.5854        9.0133n      -1.8000 
  vds          -1.8000     -900.0000m       1.7916       -8.4214m
  vbs          -1.8000       -1.8000        0.            0.     
  vth         468.4018m     688.8337m     473.1174m    -456.9536m
  vdsat        36.2441m      40.7803m      36.1185m    -990.4170m
  vod          -2.0538       -2.2742     -473.1174m      -1.3430 
  beta        630.3315u     643.8813u       1.2704m     343.4274u
  gam eff     579.7955m     574.7198m     583.5032m     524.5822m
  gm           25.0265n     5.266e-23     134.6983p       1.5780u
  gds         277.4729p     6.003e-25       1.3913p     396.7508u
  gmb           7.7798n     1.477e-23      47.5092p     912.1575n
  cdtot       506.6864a     505.8726a       1.0329f       3.4277f
  cgtot         1.5144f       1.5101f       3.2025f       6.7146f
  cstot       505.8693a     505.8726a       1.0329f       1.7915f
  cbtot       513.7269a     508.4006a       1.1596f       1.3434f
  cgs         503.2949a     503.4888a       1.0151f       3.4806f
  cgd         497.7542a     498.2592a       1.0278f       3.2712f



 subckt      xword5.xsr    xword5.xsr    xword5.xsr    xword5.xsr
 element   165:m3        165:m4        165:m5        165:m6      
 model       0:nmos        0:pmos        0:nmos        0:nmos    
 region          Linear        Cutoff      Saturati        Linear
  id           10.9455p      -7.3455p       3.3546u    -9.013e-21
  ibs           0.            0.            0.            0.     
  ibd           0.            0.            0.            0.     
  vgs           1.7916       -8.4214m     568.7057m     568.7057m
  vds           9.0133n      -1.8000        1.7916     -195.8917a
  vbs           0.            0.            0.           -9.0133n
  vth         481.5108m    -455.4835m     468.4468m     478.0696m
  vdsat       722.7226m     -36.2406m      96.3164m      90.7748m
  vod           1.3101      447.0621m     100.2589m      90.6361m
  beta          1.1048m     453.5720u     635.6279u     636.1255u
  gam eff     583.5032m     524.5822m     579.7955m     579.7955m
  gm            4.2034p     196.0312p      51.6568u     1.012e-19
  gds           1.2144m       1.4437p     555.3925n      46.0116u
  gmb           2.4578p      73.9943p      13.5913u     2.764e-20
  cdtot         2.9238f       1.1760f     502.8003a     942.4494a
  cgtot         5.8151f       3.6207f       2.4965f       2.7473f
  cstot         1.5692f       1.1760f       1.2521f       1.1635f
  cbtot         1.1986f       1.2611f     491.9486a     584.8641a
  cgs           2.9003f       1.1846f       1.8455f       1.1300f
  cgd           2.8284f       1.1750f     498.0044a       1.5309f



 subckt      xword5.xsr    xword5.xsr    xword5.xsr    xword5.xsr
 element   166:m1        166:m2        166:m3        166:m4      
 model       0:nmos        0:pmos        0:nmos        0:pmos    
 region          Cutoff        Linear        Linear  
