
---------- Begin Simulation Statistics ----------
sim_seconds                                  2.488551                       # Number of seconds simulated
sim_ticks                                2488551323000                       # Number of ticks simulated
final_tick                               2488551323000                       # Number of ticks from beginning of simulation (restored from checkpoints and never reset)
sim_freq                                 1000000000000                       # Frequency of simulated ticks
host_inst_rate                                 385718                       # Simulator instruction rate (inst/s)
host_op_rate                                   385718                       # Simulator op (including micro ops) rate (op/s)
host_tick_rate                             9875112857                       # Simulator tick rate (ticks/s)
host_mem_usage                                 732364                       # Number of bytes of host memory used
host_seconds                                   252.00                       # Real time elapsed on the host
sim_insts                                    97201812                       # Number of instructions simulated
sim_ops                                      97201812                       # Number of ops (including micro ops) simulated
system.voltage_domain.voltage                       1                       # Voltage in Volts
system.clk_domain.clock                          1000                       # Clock period in ticks
system.mem_ctrls.bytes_read::cpu.inst        32574976                       # Number of bytes read from this memory
system.mem_ctrls.bytes_read::cpu.data       138346304                       # Number of bytes read from this memory
system.mem_ctrls.bytes_read::tsunami.ide         4032                       # Number of bytes read from this memory
system.mem_ctrls.bytes_read::total          170925312                       # Number of bytes read from this memory
system.mem_ctrls.bytes_inst_read::cpu.inst     32574976                       # Number of instructions bytes read from this memory
system.mem_ctrls.bytes_inst_read::total      32574976                       # Number of instructions bytes read from this memory
system.mem_ctrls.bytes_written::writebacks     30080896                       # Number of bytes written to this memory
system.mem_ctrls.bytes_written::total        30080896                       # Number of bytes written to this memory
system.mem_ctrls.num_reads::cpu.inst           508984                       # Number of read requests responded to by this memory
system.mem_ctrls.num_reads::cpu.data          2161661                       # Number of read requests responded to by this memory
system.mem_ctrls.num_reads::tsunami.ide            63                       # Number of read requests responded to by this memory
system.mem_ctrls.num_reads::total             2670708                       # Number of read requests responded to by this memory
system.mem_ctrls.num_writes::writebacks        470014                       # Number of write requests responded to by this memory
system.mem_ctrls.num_writes::total             470014                       # Number of write requests responded to by this memory
system.mem_ctrls.bw_read::cpu.inst           13089935                       # Total read bandwidth from this memory (bytes/s)
system.mem_ctrls.bw_read::cpu.data           55593109                       # Total read bandwidth from this memory (bytes/s)
system.mem_ctrls.bw_read::tsunami.ide            1620                       # Total read bandwidth from this memory (bytes/s)
system.mem_ctrls.bw_read::total              68684664                       # Total read bandwidth from this memory (bytes/s)
system.mem_ctrls.bw_inst_read::cpu.inst      13089935                       # Instruction read bandwidth from this memory (bytes/s)
system.mem_ctrls.bw_inst_read::total         13089935                       # Instruction read bandwidth from this memory (bytes/s)
system.mem_ctrls.bw_write::writebacks        12087714                       # Write bandwidth from this memory (bytes/s)
system.mem_ctrls.bw_write::total             12087714                       # Write bandwidth from this memory (bytes/s)
system.mem_ctrls.bw_total::writebacks        12087714                       # Total bandwidth to/from this memory (bytes/s)
system.mem_ctrls.bw_total::cpu.inst          13089935                       # Total bandwidth to/from this memory (bytes/s)
system.mem_ctrls.bw_total::cpu.data          55593109                       # Total bandwidth to/from this memory (bytes/s)
system.mem_ctrls.bw_total::tsunami.ide           1620                       # Total bandwidth to/from this memory (bytes/s)
system.mem_ctrls.bw_total::total             80772378                       # Total bandwidth to/from this memory (bytes/s)
system.mem_ctrls.readReqs                     2670708                       # Number of read requests accepted
system.mem_ctrls.writeReqs                     514462                       # Number of write requests accepted
system.mem_ctrls.readBursts                   2670708                       # Number of DRAM read bursts, including those serviced by the write queue
system.mem_ctrls.writeBursts                   514462                       # Number of DRAM write bursts, including those merged in the write queue
system.mem_ctrls.bytesReadDRAM              170016896                       # Total number of bytes read from DRAM
system.mem_ctrls.bytesReadWrQ                  908416                       # Total number of bytes read from write queue
system.mem_ctrls.bytesWritten                31021312                       # Total number of bytes written to DRAM
system.mem_ctrls.bytesReadSys               170925312                       # Total read bytes from the system interface side
system.mem_ctrls.bytesWrittenSys             32925568                       # Total written bytes from the system interface side
system.mem_ctrls.servicedByWrQ                  14194                       # Number of DRAM read bursts serviced by the write queue
system.mem_ctrls.mergedWrBursts                 29731                       # Number of DRAM write bursts merged with an existing one
system.mem_ctrls.neitherReadNorWriteReqs           72                       # Number of requests that are neither read nor write
system.mem_ctrls.perBankRdBursts::0            192826                       # Per bank write bursts
system.mem_ctrls.perBankRdBursts::1            158571                       # Per bank write bursts
system.mem_ctrls.perBankRdBursts::2            203440                       # Per bank write bursts
system.mem_ctrls.perBankRdBursts::3            109386                       # Per bank write bursts
system.mem_ctrls.perBankRdBursts::4            117807                       # Per bank write bursts
system.mem_ctrls.perBankRdBursts::5            171222                       # Per bank write bursts
system.mem_ctrls.perBankRdBursts::6            167801                       # Per bank write bursts
system.mem_ctrls.perBankRdBursts::7            193802                       # Per bank write bursts
system.mem_ctrls.perBankRdBursts::8            162774                       # Per bank write bursts
system.mem_ctrls.perBankRdBursts::9            154088                       # Per bank write bursts
system.mem_ctrls.perBankRdBursts::10           194643                       # Per bank write bursts
system.mem_ctrls.perBankRdBursts::11           149487                       # Per bank write bursts
system.mem_ctrls.perBankRdBursts::12           139432                       # Per bank write bursts
system.mem_ctrls.perBankRdBursts::13           173963                       # Per bank write bursts
system.mem_ctrls.perBankRdBursts::14           188360                       # Per bank write bursts
system.mem_ctrls.perBankRdBursts::15           178912                       # Per bank write bursts
system.mem_ctrls.perBankWrBursts::0             26684                       # Per bank write bursts
system.mem_ctrls.perBankWrBursts::1             30901                       # Per bank write bursts
system.mem_ctrls.perBankWrBursts::2             45307                       # Per bank write bursts
system.mem_ctrls.perBankWrBursts::3             26439                       # Per bank write bursts
system.mem_ctrls.perBankWrBursts::4             26764                       # Per bank write bursts
system.mem_ctrls.perBankWrBursts::5             26777                       # Per bank write bursts
system.mem_ctrls.perBankWrBursts::6             32197                       # Per bank write bursts
system.mem_ctrls.perBankWrBursts::7             30056                       # Per bank write bursts
system.mem_ctrls.perBankWrBursts::8             29958                       # Per bank write bursts
system.mem_ctrls.perBankWrBursts::9             27928                       # Per bank write bursts
system.mem_ctrls.perBankWrBursts::10            30919                       # Per bank write bursts
system.mem_ctrls.perBankWrBursts::11            32304                       # Per bank write bursts
system.mem_ctrls.perBankWrBursts::12            26830                       # Per bank write bursts
system.mem_ctrls.perBankWrBursts::13            31768                       # Per bank write bursts
system.mem_ctrls.perBankWrBursts::14            26634                       # Per bank write bursts
system.mem_ctrls.perBankWrBursts::15            33242                       # Per bank write bursts
system.mem_ctrls.numRdRetry                         0                       # Number of times read queue was full causing retry
system.mem_ctrls.numWrRetry                       103                       # Number of times write queue was full causing retry
system.mem_ctrls.totGap                  2488551300500                       # Total gap between requests
system.mem_ctrls.readPktSize::0                     0                       # Read request sizes (log2)
system.mem_ctrls.readPktSize::1                     0                       # Read request sizes (log2)
system.mem_ctrls.readPktSize::2                     0                       # Read request sizes (log2)
system.mem_ctrls.readPktSize::3                     0                       # Read request sizes (log2)
system.mem_ctrls.readPktSize::4                     0                       # Read request sizes (log2)
system.mem_ctrls.readPktSize::5                     0                       # Read request sizes (log2)
system.mem_ctrls.readPktSize::6               2670708                       # Read request sizes (log2)
system.mem_ctrls.writePktSize::0                    0                       # Write request sizes (log2)
system.mem_ctrls.writePktSize::1                    0                       # Write request sizes (log2)
system.mem_ctrls.writePktSize::2                    0                       # Write request sizes (log2)
system.mem_ctrls.writePktSize::3                    0                       # Write request sizes (log2)
system.mem_ctrls.writePktSize::4                    0                       # Write request sizes (log2)
system.mem_ctrls.writePktSize::5                    0                       # Write request sizes (log2)
system.mem_ctrls.writePktSize::6               514462                       # Write request sizes (log2)
system.mem_ctrls.rdQLenPdf::0                 2574434                       # What read queue length does an incoming req see
system.mem_ctrls.rdQLenPdf::1                   78051                       # What read queue length does an incoming req see
system.mem_ctrls.rdQLenPdf::2                    3964                       # What read queue length does an incoming req see
system.mem_ctrls.rdQLenPdf::3                       2                       # What read queue length does an incoming req see
system.mem_ctrls.rdQLenPdf::4                       4                       # What read queue length does an incoming req see
system.mem_ctrls.rdQLenPdf::5                       3                       # What read queue length does an incoming req see
system.mem_ctrls.rdQLenPdf::6                       3                       # What read queue length does an incoming req see
system.mem_ctrls.rdQLenPdf::7                       4                       # What read queue length does an incoming req see
system.mem_ctrls.rdQLenPdf::8                       5                       # What read queue length does an incoming req see
system.mem_ctrls.rdQLenPdf::9                      14                       # What read queue length does an incoming req see
system.mem_ctrls.rdQLenPdf::10                     10                       # What read queue length does an incoming req see
system.mem_ctrls.rdQLenPdf::11                      3                       # What read queue length does an incoming req see
system.mem_ctrls.rdQLenPdf::12                      2                       # What read queue length does an incoming req see
system.mem_ctrls.rdQLenPdf::13                      2                       # What read queue length does an incoming req see
system.mem_ctrls.rdQLenPdf::14                      2                       # What read queue length does an incoming req see
system.mem_ctrls.rdQLenPdf::15                      2                       # What read queue length does an incoming req see
system.mem_ctrls.rdQLenPdf::16                      2                       # What read queue length does an incoming req see
system.mem_ctrls.rdQLenPdf::17                      2                       # What read queue length does an incoming req see
system.mem_ctrls.rdQLenPdf::18                      2                       # What read queue length does an incoming req see
system.mem_ctrls.rdQLenPdf::19                      2                       # What read queue length does an incoming req see
system.mem_ctrls.rdQLenPdf::20                      1                       # What read queue length does an incoming req see
system.mem_ctrls.rdQLenPdf::21                      0                       # What read queue length does an incoming req see
system.mem_ctrls.rdQLenPdf::22                      0                       # What read queue length does an incoming req see
system.mem_ctrls.rdQLenPdf::23                      0                       # What read queue length does an incoming req see
system.mem_ctrls.rdQLenPdf::24                      0                       # What read queue length does an incoming req see
system.mem_ctrls.rdQLenPdf::25                      0                       # What read queue length does an incoming req see
system.mem_ctrls.rdQLenPdf::26                      0                       # What read queue length does an incoming req see
system.mem_ctrls.rdQLenPdf::27                      0                       # What read queue length does an incoming req see
system.mem_ctrls.rdQLenPdf::28                      0                       # What read queue length does an incoming req see
system.mem_ctrls.rdQLenPdf::29                      0                       # What read queue length does an incoming req see
system.mem_ctrls.rdQLenPdf::30                      0                       # What read queue length does an incoming req see
system.mem_ctrls.rdQLenPdf::31                      0                       # What read queue length does an incoming req see
system.mem_ctrls.wrQLenPdf::0                       1                       # What write queue length does an incoming req see
system.mem_ctrls.wrQLenPdf::1                       1                       # What write queue length does an incoming req see
system.mem_ctrls.wrQLenPdf::2                       1                       # What write queue length does an incoming req see
system.mem_ctrls.wrQLenPdf::3                       1                       # What write queue length does an incoming req see
system.mem_ctrls.wrQLenPdf::4                       1                       # What write queue length does an incoming req see
system.mem_ctrls.wrQLenPdf::5                       1                       # What write queue length does an incoming req see
system.mem_ctrls.wrQLenPdf::6                       1                       # What write queue length does an incoming req see
system.mem_ctrls.wrQLenPdf::7                       1                       # What write queue length does an incoming req see
system.mem_ctrls.wrQLenPdf::8                       1                       # What write queue length does an incoming req see
system.mem_ctrls.wrQLenPdf::9                       1                       # What write queue length does an incoming req see
system.mem_ctrls.wrQLenPdf::10                      1                       # What write queue length does an incoming req see
system.mem_ctrls.wrQLenPdf::11                      1                       # What write queue length does an incoming req see
system.mem_ctrls.wrQLenPdf::12                      1                       # What write queue length does an incoming req see
system.mem_ctrls.wrQLenPdf::13                      1                       # What write queue length does an incoming req see
system.mem_ctrls.wrQLenPdf::14                      1                       # What write queue length does an incoming req see
system.mem_ctrls.wrQLenPdf::15                   2895                       # What write queue length does an incoming req see
system.mem_ctrls.wrQLenPdf::16                   3463                       # What write queue length does an incoming req see
system.mem_ctrls.wrQLenPdf::17                  26213                       # What write queue length does an incoming req see
system.mem_ctrls.wrQLenPdf::18                  26780                       # What write queue length does an incoming req see
system.mem_ctrls.wrQLenPdf::19                  26707                       # What write queue length does an incoming req see
system.mem_ctrls.wrQLenPdf::20                  26612                       # What write queue length does an incoming req see
system.mem_ctrls.wrQLenPdf::21                  26549                       # What write queue length does an incoming req see
system.mem_ctrls.wrQLenPdf::22                  26749                       # What write queue length does an incoming req see
system.mem_ctrls.wrQLenPdf::23                  26671                       # What write queue length does an incoming req see
system.mem_ctrls.wrQLenPdf::24                  26998                       # What write queue length does an incoming req see
system.mem_ctrls.wrQLenPdf::25                  27010                       # What write queue length does an incoming req see
system.mem_ctrls.wrQLenPdf::26                  28208                       # What write queue length does an incoming req see
system.mem_ctrls.wrQLenPdf::27                  27545                       # What write queue length does an incoming req see
system.mem_ctrls.wrQLenPdf::28                  27856                       # What write queue length does an incoming req see
system.mem_ctrls.wrQLenPdf::29                  28923                       # What write queue length does an incoming req see
system.mem_ctrls.wrQLenPdf::30                  28068                       # What write queue length does an incoming req see
system.mem_ctrls.wrQLenPdf::31                  27900                       # What write queue length does an incoming req see
system.mem_ctrls.wrQLenPdf::32                  27868                       # What write queue length does an incoming req see
system.mem_ctrls.wrQLenPdf::33                   1247                       # What write queue length does an incoming req see
system.mem_ctrls.wrQLenPdf::34                   1333                       # What write queue length does an incoming req see
system.mem_ctrls.wrQLenPdf::35                   1530                       # What write queue length does an incoming req see
system.mem_ctrls.wrQLenPdf::36                   1401                       # What write queue length does an incoming req see
system.mem_ctrls.wrQLenPdf::37                   1419                       # What write queue length does an incoming req see
system.mem_ctrls.wrQLenPdf::38                   1286                       # What write queue length does an incoming req see
system.mem_ctrls.wrQLenPdf::39                   1655                       # What write queue length does an incoming req see
system.mem_ctrls.wrQLenPdf::40                   1492                       # What write queue length does an incoming req see
system.mem_ctrls.wrQLenPdf::41                   1661                       # What write queue length does an incoming req see
system.mem_ctrls.wrQLenPdf::42                   1805                       # What write queue length does an incoming req see
system.mem_ctrls.wrQLenPdf::43                   1930                       # What write queue length does an incoming req see
system.mem_ctrls.wrQLenPdf::44                   1968                       # What write queue length does an incoming req see
system.mem_ctrls.wrQLenPdf::45                   2239                       # What write queue length does an incoming req see
system.mem_ctrls.wrQLenPdf::46                   2702                       # What write queue length does an incoming req see
system.mem_ctrls.wrQLenPdf::47                   2742                       # What write queue length does an incoming req see
system.mem_ctrls.wrQLenPdf::48                   2757                       # What write queue length does an incoming req see
system.mem_ctrls.wrQLenPdf::49                   2320                       # What write queue length does an incoming req see
system.mem_ctrls.wrQLenPdf::50                   2044                       # What write queue length does an incoming req see
system.mem_ctrls.wrQLenPdf::51                   1809                       # What write queue length does an incoming req see
system.mem_ctrls.wrQLenPdf::52                   1400                       # What write queue length does an incoming req see
system.mem_ctrls.wrQLenPdf::53                    950                       # What write queue length does an incoming req see
system.mem_ctrls.wrQLenPdf::54                    698                       # What write queue length does an incoming req see
system.mem_ctrls.wrQLenPdf::55                    555                       # What write queue length does an incoming req see
system.mem_ctrls.wrQLenPdf::56                    499                       # What write queue length does an incoming req see
system.mem_ctrls.wrQLenPdf::57                    478                       # What write queue length does an incoming req see
system.mem_ctrls.wrQLenPdf::58                    455                       # What write queue length does an incoming req see
system.mem_ctrls.wrQLenPdf::59                    273                       # What write queue length does an incoming req see
system.mem_ctrls.wrQLenPdf::60                    335                       # What write queue length does an incoming req see
system.mem_ctrls.wrQLenPdf::61                    189                       # What write queue length does an incoming req see
system.mem_ctrls.wrQLenPdf::62                    179                       # What write queue length does an incoming req see
system.mem_ctrls.wrQLenPdf::63                    350                       # What write queue length does an incoming req see
system.mem_ctrls.bytesPerActivate::samples       589420                       # Bytes accessed per row activation
system.mem_ctrls.bytesPerActivate::mean    341.075634                       # Bytes accessed per row activation
system.mem_ctrls.bytesPerActivate::gmean   194.004034                       # Bytes accessed per row activation
system.mem_ctrls.bytesPerActivate::stdev   357.933996                       # Bytes accessed per row activation
system.mem_ctrls.bytesPerActivate::0-127       216505     36.73%     36.73% # Bytes accessed per row activation
system.mem_ctrls.bytesPerActivate::128-255       134518     22.82%     59.55% # Bytes accessed per row activation
system.mem_ctrls.bytesPerActivate::256-383        53706      9.11%     68.67% # Bytes accessed per row activation
system.mem_ctrls.bytesPerActivate::384-511        29944      5.08%     73.75% # Bytes accessed per row activation
system.mem_ctrls.bytesPerActivate::512-639        22366      3.79%     77.54% # Bytes accessed per row activation
system.mem_ctrls.bytesPerActivate::640-767        14287      2.42%     79.96% # Bytes accessed per row activation
system.mem_ctrls.bytesPerActivate::768-895        11040      1.87%     81.84% # Bytes accessed per row activation
system.mem_ctrls.bytesPerActivate::896-1023        10138      1.72%     83.56% # Bytes accessed per row activation
system.mem_ctrls.bytesPerActivate::1024-1151        96916     16.44%    100.00% # Bytes accessed per row activation
system.mem_ctrls.bytesPerActivate::total       589420                       # Bytes accessed per row activation
system.mem_ctrls.rdPerTurnAround::samples        27910                       # Reads before turning the bus around for writes
system.mem_ctrls.rdPerTurnAround::mean      95.181046                       # Reads before turning the bus around for writes
system.mem_ctrls.rdPerTurnAround::stdev   6158.581261                       # Reads before turning the bus around for writes
system.mem_ctrls.rdPerTurnAround::0-32767        27908     99.99%     99.99% # Reads before turning the bus around for writes
system.mem_ctrls.rdPerTurnAround::32768-65535            1      0.00%    100.00% # Reads before turning the bus around for writes
system.mem_ctrls.rdPerTurnAround::1.01581e+06-1.04858e+06            1      0.00%    100.00% # Reads before turning the bus around for writes
system.mem_ctrls.rdPerTurnAround::total         27910                       # Reads before turning the bus around for writes
system.mem_ctrls.wrPerTurnAround::samples        27910                       # Writes before turning the bus around for reads
system.mem_ctrls.wrPerTurnAround::mean      17.366822                       # Writes before turning the bus around for reads
system.mem_ctrls.wrPerTurnAround::gmean     16.590645                       # Writes before turning the bus around for reads
system.mem_ctrls.wrPerTurnAround::stdev     17.028657                       # Writes before turning the bus around for reads
system.mem_ctrls.wrPerTurnAround::16-31         27611     98.93%     98.93% # Writes before turning the bus around for reads
system.mem_ctrls.wrPerTurnAround::32-47           135      0.48%     99.41% # Writes before turning the bus around for reads
system.mem_ctrls.wrPerTurnAround::48-63            41      0.15%     99.56% # Writes before turning the bus around for reads
system.mem_ctrls.wrPerTurnAround::64-79            23      0.08%     99.64% # Writes before turning the bus around for reads
system.mem_ctrls.wrPerTurnAround::80-95            13      0.05%     99.69% # Writes before turning the bus around for reads
system.mem_ctrls.wrPerTurnAround::96-111           15      0.05%     99.74% # Writes before turning the bus around for reads
system.mem_ctrls.wrPerTurnAround::112-127            3      0.01%     99.75% # Writes before turning the bus around for reads
system.mem_ctrls.wrPerTurnAround::128-143            4      0.01%     99.77% # Writes before turning the bus around for reads
system.mem_ctrls.wrPerTurnAround::144-159           14      0.05%     99.82% # Writes before turning the bus around for reads
system.mem_ctrls.wrPerTurnAround::160-175            7      0.03%     99.84% # Writes before turning the bus around for reads
system.mem_ctrls.wrPerTurnAround::176-191            6      0.02%     99.86% # Writes before turning the bus around for reads
system.mem_ctrls.wrPerTurnAround::192-207            3      0.01%     99.87% # Writes before turning the bus around for reads
system.mem_ctrls.wrPerTurnAround::272-287            1      0.00%     99.88% # Writes before turning the bus around for reads
system.mem_ctrls.wrPerTurnAround::288-303            1      0.00%     99.88% # Writes before turning the bus around for reads
system.mem_ctrls.wrPerTurnAround::304-319            1      0.00%     99.89% # Writes before turning the bus around for reads
system.mem_ctrls.wrPerTurnAround::320-335            9      0.03%     99.92% # Writes before turning the bus around for reads
system.mem_ctrls.wrPerTurnAround::336-351            1      0.00%     99.92% # Writes before turning the bus around for reads
system.mem_ctrls.wrPerTurnAround::368-383            9      0.03%     99.95% # Writes before turning the bus around for reads
system.mem_ctrls.wrPerTurnAround::400-415            1      0.00%     99.96% # Writes before turning the bus around for reads
system.mem_ctrls.wrPerTurnAround::480-495            1      0.00%     99.96% # Writes before turning the bus around for reads
system.mem_ctrls.wrPerTurnAround::512-527            1      0.00%     99.96% # Writes before turning the bus around for reads
system.mem_ctrls.wrPerTurnAround::528-543            2      0.01%     99.97% # Writes before turning the bus around for reads
system.mem_ctrls.wrPerTurnAround::544-559            1      0.00%     99.97% # Writes before turning the bus around for reads
system.mem_ctrls.wrPerTurnAround::576-591            1      0.00%     99.98% # Writes before turning the bus around for reads
system.mem_ctrls.wrPerTurnAround::672-687            1      0.00%     99.98% # Writes before turning the bus around for reads
system.mem_ctrls.wrPerTurnAround::688-703            2      0.01%     99.99% # Writes before turning the bus around for reads
system.mem_ctrls.wrPerTurnAround::704-719            2      0.01%    100.00% # Writes before turning the bus around for reads
system.mem_ctrls.wrPerTurnAround::720-735            1      0.00%    100.00% # Writes before turning the bus around for reads
system.mem_ctrls.wrPerTurnAround::total         27910                       # Writes before turning the bus around for reads
system.mem_ctrls.totQLat                  19039044798                       # Total ticks spent queuing
system.mem_ctrls.totMemAccLat             68848682298                       # Total ticks spent from burst creation until serviced by the DRAM
system.mem_ctrls.totBusLat                13282570000                       # Total ticks spent in databus transfers
system.mem_ctrls.avgQLat                      7166.93                       # Average queueing delay per DRAM burst
system.mem_ctrls.avgBusLat                    5000.00                       # Average bus latency per DRAM burst
system.mem_ctrls.avgMemAccLat                25916.93                       # Average memory access latency per DRAM burst
system.mem_ctrls.avgRdBW                        68.32                       # Average DRAM read bandwidth in MiByte/s
system.mem_ctrls.avgWrBW                        12.47                       # Average achieved write bandwidth in MiByte/s
system.mem_ctrls.avgRdBWSys                     68.68                       # Average system read bandwidth in MiByte/s
system.mem_ctrls.avgWrBWSys                     13.23                       # Average system write bandwidth in MiByte/s
system.mem_ctrls.peakBW                      12800.00                       # Theoretical peak bandwidth in MiByte/s
system.mem_ctrls.busUtil                         0.63                       # Data bus utilization in percentage
system.mem_ctrls.busUtilRead                     0.53                       # Data bus utilization in percentage for reads
system.mem_ctrls.busUtilWrite                    0.10                       # Data bus utilization in percentage for writes
system.mem_ctrls.avgRdQLen                       1.01                       # Average read queue length when enqueuing
system.mem_ctrls.avgWrQLen                      24.77                       # Average write queue length when enqueuing
system.mem_ctrls.readRowHits                  2179753                       # Number of row buffer hits during reads
system.mem_ctrls.writeRowHits                  372042                       # Number of row buffer hits during writes
system.mem_ctrls.readRowHitRate                 82.05                       # Row buffer hit rate for reads
system.mem_ctrls.writeRowHitRate                76.75                       # Row buffer hit rate for writes
system.mem_ctrls.avgGap                     781293.09                       # Average gap between requests
system.mem_ctrls.pageHitRate                    81.24                       # Row buffer hit rate, read and write combined
system.mem_ctrls_0.actEnergy               1991424960                       # Energy for activate commands per rank (pJ)
system.mem_ctrls_0.preEnergy               1086591000                       # Energy for precharge commands per rank (pJ)
system.mem_ctrls_0.readEnergy             10255791000                       # Energy for read commands per rank (pJ)
system.mem_ctrls_0.writeEnergy             1588215600                       # Energy for write commands per rank (pJ)
system.mem_ctrls_0.refreshEnergy         162539844480                       # Energy for refresh commands per rank (pJ)
system.mem_ctrls_0.actBackEnergy         193815744255                       # Energy for active background per rank (pJ)
system.mem_ctrls_0.preBackEnergy         1323115019250                       # Energy for precharge background per rank (pJ)
system.mem_ctrls_0.totalEnergy           1694392630545                       # Total energy per rank (pJ)
system.mem_ctrls_0.averagePower            680.875995                       # Core power per rank (mW)
system.mem_ctrls_0.memoryStateTime::IDLE 2199910955984                       # Time in different power states
system.mem_ctrls_0.memoryStateTime::REF   83098080000                       # Time in different power states
system.mem_ctrls_0.memoryStateTime::PRE_PDN            0                       # Time in different power states
system.mem_ctrls_0.memoryStateTime::ACT  205539027766                       # Time in different power states
system.mem_ctrls_0.memoryStateTime::ACT_PDN            0                       # Time in different power states
system.mem_ctrls_1.actEnergy               2464522200                       # Energy for activate commands per rank (pJ)
system.mem_ctrls_1.preEnergy               1344729375                       # Energy for precharge commands per rank (pJ)
system.mem_ctrls_1.readEnergy             10464768600                       # Energy for read commands per rank (pJ)
system.mem_ctrls_1.writeEnergy             1552484880                       # Energy for write commands per rank (pJ)
system.mem_ctrls_1.refreshEnergy         162539844480                       # Energy for refresh commands per rank (pJ)
system.mem_ctrls_1.actBackEnergy         194477062815                       # Energy for active background per rank (pJ)
system.mem_ctrls_1.preBackEnergy         1322534915250                       # Energy for precharge background per rank (pJ)
system.mem_ctrls_1.totalEnergy           1695378327600                       # Total energy per rank (pJ)
system.mem_ctrls_1.averagePower            681.272089                       # Core power per rank (mW)
system.mem_ctrls_1.memoryStateTime::IDLE 2198934356000                       # Time in different power states
system.mem_ctrls_1.memoryStateTime::REF   83098080000                       # Time in different power states
system.mem_ctrls_1.memoryStateTime::PRE_PDN            0                       # Time in different power states
system.mem_ctrls_1.memoryStateTime::ACT  206515783000                       # Time in different power states
system.mem_ctrls_1.memoryStateTime::ACT_PDN            0                       # Time in different power states
system.cpu.branchPred.lookups                24115083                       # Number of BP lookups
system.cpu.branchPred.condPredicted          20413869                       # Number of conditional branches predicted
system.cpu.branchPred.condIncorrect            525713                       # Number of conditional branches incorrect
system.cpu.branchPred.BTBLookups             12238555                       # Number of BTB lookups
system.cpu.branchPred.BTBHits                 9725825                       # Number of BTB hits
system.cpu.branchPred.BTBCorrect                    0                       # Number of correct BTB predictions (this stat may not work properly.
system.cpu.branchPred.BTBHitPct             79.468736                       # BTB Hit Percentage
system.cpu.branchPred.usedRAS                 1576705                       # Number of times the RAS was used to get a target.
system.cpu.branchPred.RASInCorrect              43584                       # Number of incorrect RAS predictions.
system.cpu_voltage_domain.voltage                   1                       # Voltage in Volts
system.cpu_clk_domain.clock                       500                       # Clock period in ticks
system.cpu.dtb.fetch_hits                           0                       # ITB hits
system.cpu.dtb.fetch_misses                         0                       # ITB misses
system.cpu.dtb.fetch_acv                            0                       # ITB acv
system.cpu.dtb.fetch_accesses                       0                       # ITB accesses
system.cpu.dtb.read_hits                     17234148                       # DTB read hits
system.cpu.dtb.read_misses                      35863                       # DTB read misses
system.cpu.dtb.read_acv                           111                       # DTB read access violations
system.cpu.dtb.read_accesses                   872678                       # DTB read accesses
system.cpu.dtb.write_hits                     8909646                       # DTB write hits
system.cpu.dtb.write_misses                      3406                       # DTB write misses
system.cpu.dtb.write_acv                          183                       # DTB write access violations
system.cpu.dtb.write_accesses                  331927                       # DTB write accesses
system.cpu.dtb.data_hits                     26143794                       # DTB hits
system.cpu.dtb.data_misses                      39269                       # DTB misses
system.cpu.dtb.data_acv                           294                       # DTB access violations
system.cpu.dtb.data_accesses                  1204605                       # DTB accesses
system.cpu.itb.fetch_hits                     4537802                       # ITB hits
system.cpu.itb.fetch_misses                      8541                       # ITB misses
system.cpu.itb.fetch_acv                          473                       # ITB acv
system.cpu.itb.fetch_accesses                 4546343                       # ITB accesses
system.cpu.itb.read_hits                            0                       # DTB read hits
system.cpu.itb.read_misses                          0                       # DTB read misses
system.cpu.itb.read_acv                             0                       # DTB read access violations
system.cpu.itb.read_accesses                        0                       # DTB read accesses
system.cpu.itb.write_hits                           0                       # DTB write hits
system.cpu.itb.write_misses                         0                       # DTB write misses
system.cpu.itb.write_acv                            0                       # DTB write access violations
system.cpu.itb.write_accesses                       0                       # DTB write accesses
system.cpu.itb.data_hits                            0                       # DTB hits
system.cpu.itb.data_misses                          0                       # DTB misses
system.cpu.itb.data_acv                             0                       # DTB access violations
system.cpu.itb.data_accesses                        0                       # DTB accesses
system.cpu.numCycles                        572738998                       # number of cpu cycles simulated
system.cpu.numWorkItemsStarted                      0                       # number of work items this cpu started
system.cpu.numWorkItemsCompleted                    0                       # number of work items this cpu completed
system.cpu.committedInsts                    97201812                       # Number of instructions committed
system.cpu.committedOps                      97201812                       # Number of ops (including micro ops) committed
system.cpu.discardedOps                       3276342                       # Number of ops (including micro ops) which were discarded before commit
system.cpu.numFetchSuspends                      6246                       # Number of times Execute suspended instruction fetching
system.cpu.quiesceCycles                   4404363648                       # Total number of cycles that CPU has spent quiesced or waiting for an interrupt
system.cpu.cpi                               5.892267                       # CPI: cycles per instruction
system.cpu.ipc                               0.169714                       # IPC: instructions per cycle
system.cpu.kern.inst.arm                            0                       # number of arm instructions executed
system.cpu.kern.inst.quiesce                     7084                       # number of quiesce instructions executed
system.cpu.kern.inst.hwrei                     236246                       # number of hwrei instructions executed
system.cpu.kern.ipl_count::0                    82487     40.24%     40.24% # number of times we switched to this ipl
system.cpu.kern.ipl_count::21                     117      0.06%     40.30% # number of times we switched to this ipl
system.cpu.kern.ipl_count::22                    2452      1.20%     41.49% # number of times we switched to this ipl
system.cpu.kern.ipl_count::31                  119923     58.51%    100.00% # number of times we switched to this ipl
system.cpu.kern.ipl_count::total               204979                       # number of times we switched to this ipl
system.cpu.kern.ipl_good::0                     80950     49.22%     49.22% # number of times we switched to this ipl from a different ipl
system.cpu.kern.ipl_good::21                      117      0.07%     49.29% # number of times we switched to this ipl from a different ipl
system.cpu.kern.ipl_good::22                     2452      1.49%     50.78% # number of times we switched to this ipl from a different ipl
system.cpu.kern.ipl_good::31                    80950     49.22%    100.00% # number of times we switched to this ipl from a different ipl
system.cpu.kern.ipl_good::total                164469                       # number of times we switched to this ipl from a different ipl
system.cpu.kern.ipl_ticks::0             2350978957000     94.47%     94.47% # number of cycles we spent at this ipl
system.cpu.kern.ipl_ticks::21               119227000      0.00%     94.48% # number of cycles we spent at this ipl
system.cpu.kern.ipl_ticks::22               980040000      0.04%     94.52% # number of cycles we spent at this ipl
system.cpu.kern.ipl_ticks::31            136469169000      5.48%    100.00% # number of cycles we spent at this ipl
system.cpu.kern.ipl_ticks::total         2488547393000                       # number of cycles we spent at this ipl
system.cpu.kern.ipl_used::0                  0.981367                       # fraction of swpipl calls that actually changed the ipl
system.cpu.kern.ipl_used::21                        1                       # fraction of swpipl calls that actually changed the ipl
system.cpu.kern.ipl_used::22                        1                       # fraction of swpipl calls that actually changed the ipl
system.cpu.kern.ipl_used::31                 0.675016                       # fraction of swpipl calls that actually changed the ipl
system.cpu.kern.ipl_used::total              0.802370                       # fraction of swpipl calls that actually changed the ipl
system.cpu.kern.syscall::2                          8      2.19%      2.19% # number of syscalls executed
system.cpu.kern.syscall::3                         33      9.04%     11.23% # number of syscalls executed
system.cpu.kern.syscall::4                          4      1.10%     12.33% # number of syscalls executed
system.cpu.kern.syscall::6                         45     12.33%     24.66% # number of syscalls executed
system.cpu.kern.syscall::12                         2      0.55%     25.21% # number of syscalls executed
system.cpu.kern.syscall::15                         1      0.27%     25.48% # number of syscalls executed
system.cpu.kern.syscall::17                        18      4.93%     30.41% # number of syscalls executed
system.cpu.kern.syscall::19                        11      3.01%     33.42% # number of syscalls executed
system.cpu.kern.syscall::20                         6      1.64%     35.07% # number of syscalls executed
system.cpu.kern.syscall::23                         4      1.10%     36.16% # number of syscalls executed
system.cpu.kern.syscall::24                         8      2.19%     38.36% # number of syscalls executed
system.cpu.kern.syscall::33                        12      3.29%     41.64% # number of syscalls executed
system.cpu.kern.syscall::41                         2      0.55%     42.19% # number of syscalls executed
system.cpu.kern.syscall::45                        62     16.99%     59.18% # number of syscalls executed
system.cpu.kern.syscall::47                         8      2.19%     61.37% # number of syscalls executed
system.cpu.kern.syscall::48                        10      2.74%     64.11% # number of syscalls executed
system.cpu.kern.syscall::54                        11      3.01%     67.12% # number of syscalls executed
system.cpu.kern.syscall::58                         2      0.55%     67.67% # number of syscalls executed
system.cpu.kern.syscall::59                         7      1.92%     69.59% # number of syscalls executed
system.cpu.kern.syscall::71                        62     16.99%     86.58% # number of syscalls executed
system.cpu.kern.syscall::73                         5      1.37%     87.95% # number of syscalls executed
system.cpu.kern.syscall::74                        18      4.93%     92.88% # number of syscalls executed
system.cpu.kern.syscall::87                         2      0.55%     93.42% # number of syscalls executed
system.cpu.kern.syscall::90                         3      0.82%     94.25% # number of syscalls executed
system.cpu.kern.syscall::92                         9      2.47%     96.71% # number of syscalls executed
system.cpu.kern.syscall::97                         2      0.55%     97.26% # number of syscalls executed
system.cpu.kern.syscall::98                         2      0.55%     97.81% # number of syscalls executed
system.cpu.kern.syscall::132                        4      1.10%     98.90% # number of syscalls executed
system.cpu.kern.syscall::144                        2      0.55%     99.45% # number of syscalls executed
system.cpu.kern.syscall::147                        2      0.55%    100.00% # number of syscalls executed
system.cpu.kern.syscall::total                    365                       # number of syscalls executed
system.cpu.kern.callpal::cserve                     1      0.00%      0.00% # number of callpals executed
system.cpu.kern.callpal::wrmces                     1      0.00%      0.00% # number of callpals executed
system.cpu.kern.callpal::wrfen                      1      0.00%      0.00% # number of callpals executed
system.cpu.kern.callpal::wrvptptr                   1      0.00%      0.00% # number of callpals executed
system.cpu.kern.callpal::swpctx                  4510      2.11%      2.11% # number of callpals executed
system.cpu.kern.callpal::tbi                       65      0.03%      2.14% # number of callpals executed
system.cpu.kern.callpal::wrent                      7      0.00%      2.15% # number of callpals executed
system.cpu.kern.callpal::swpipl                196354     91.92%     94.07% # number of callpals executed
system.cpu.kern.callpal::rdps                    5795      2.71%     96.78% # number of callpals executed
system.cpu.kern.callpal::wrkgp                      1      0.00%     96.78% # number of callpals executed
system.cpu.kern.callpal::wrusp                      8      0.00%     96.79% # number of callpals executed
system.cpu.kern.callpal::rdusp                     10      0.00%     96.79% # number of callpals executed
system.cpu.kern.callpal::whami                      2      0.00%     96.79% # number of callpals executed
system.cpu.kern.callpal::rti                     6055      2.83%     99.63% # number of callpals executed
system.cpu.kern.callpal::callsys                  561      0.26%     99.89% # number of callpals executed
system.cpu.kern.callpal::imb                      235      0.11%    100.00% # number of callpals executed
system.cpu.kern.callpal::total                 213607                       # number of callpals executed
system.cpu.kern.mode_switch::kernel              6744                       # number of protection mode switches
system.cpu.kern.mode_switch::user                1972                       # number of protection mode switches
system.cpu.kern.mode_switch::idle                2327                       # number of protection mode switches
system.cpu.kern.mode_good::kernel                2043                      
system.cpu.kern.mode_good::user                  1972                      
system.cpu.kern.mode_good::idle                    71                      
system.cpu.kern.mode_switch_good::kernel     0.302936                       # fraction of useful protection mode switches
system.cpu.kern.mode_switch_good::user              1                       # fraction of useful protection mode switches
system.cpu.kern.mode_switch_good::idle       0.030511                       # fraction of useful protection mode switches
system.cpu.kern.mode_switch_good::total      0.370008                       # fraction of useful protection mode switches
system.cpu.kern.mode_ticks::kernel       186757623000      7.50%      7.50% # number of ticks spent at the given mode
system.cpu.kern.mode_ticks::user           7725223500      0.31%      7.82% # number of ticks spent at the given mode
system.cpu.kern.mode_ticks::idle         2294064536500     92.18%    100.00% # number of ticks spent at the given mode
system.cpu.kern.swap_context                     4511                       # number of times the context was actually changed
system.cpu.tickCycles                       153668318                       # Number of cycles that the object actually ticked
system.cpu.idleCycles                       419070680                       # Total number of cycles that the object has spent stopped
system.cpu.dcache.tags.replacements           3826344                       # number of replacements
system.cpu.dcache.tags.tagsinuse           255.994276                       # Cycle average of tags in use
system.cpu.dcache.tags.total_refs            21516122                       # Total number of references to valid blocks.
system.cpu.dcache.tags.sampled_refs           3826600                       # Sample count of references to valid blocks.
system.cpu.dcache.tags.avg_refs              5.622778                       # Average number of references to valid blocks.
system.cpu.dcache.tags.warmup_cycle          71726250                       # Cycle when the warmup percentage was hit.
system.cpu.dcache.tags.occ_blocks::cpu.data   255.994276                       # Average occupied blocks per requestor
system.cpu.dcache.tags.occ_percent::cpu.data     0.999978                       # Average percentage of cache occupancy
system.cpu.dcache.tags.occ_percent::total     0.999978                       # Average percentage of cache occupancy
system.cpu.dcache.tags.occ_task_id_blocks::1024          256                       # Occupied blocks per task id
system.cpu.dcache.tags.age_task_id_blocks_1024::0           37                       # Occupied blocks per task id
system.cpu.dcache.tags.age_task_id_blocks_1024::1          191                       # Occupied blocks per task id
system.cpu.dcache.tags.age_task_id_blocks_1024::2           28                       # Occupied blocks per task id
system.cpu.dcache.tags.occ_task_id_percent::1024            1                       # Percentage of cache occupancy per task id
system.cpu.dcache.tags.tag_accesses         107767676                       # Number of tag accesses
system.cpu.dcache.tags.data_accesses        107767676                       # Number of data accesses
system.cpu.dcache.ReadReq_hits::cpu.data     13256076                       # number of ReadReq hits
system.cpu.dcache.ReadReq_hits::total        13256076                       # number of ReadReq hits
system.cpu.dcache.WriteReq_hits::cpu.data      7666174                       # number of WriteReq hits
system.cpu.dcache.WriteReq_hits::total        7666174                       # number of WriteReq hits
system.cpu.dcache.LoadLockedReq_hits::cpu.data       278690                       # number of LoadLockedReq hits
system.cpu.dcache.LoadLockedReq_hits::total       278690                       # number of LoadLockedReq hits
system.cpu.dcache.StoreCondReq_hits::cpu.data       315163                       # number of StoreCondReq hits
system.cpu.dcache.StoreCondReq_hits::total       315163                       # number of StoreCondReq hits
system.cpu.dcache.demand_hits::cpu.data      20922250                       # number of demand (read+write) hits
system.cpu.dcache.demand_hits::total         20922250                       # number of demand (read+write) hits
system.cpu.dcache.overall_hits::cpu.data     20922250                       # number of overall hits
system.cpu.dcache.overall_hits::total        20922250                       # number of overall hits
system.cpu.dcache.ReadReq_misses::cpu.data      3552628                       # number of ReadReq misses
system.cpu.dcache.ReadReq_misses::total       3552628                       # number of ReadReq misses
system.cpu.dcache.WriteReq_misses::cpu.data       878982                       # number of WriteReq misses
system.cpu.dcache.WriteReq_misses::total       878982                       # number of WriteReq misses
system.cpu.dcache.LoadLockedReq_misses::cpu.data        37556                       # number of LoadLockedReq misses
system.cpu.dcache.LoadLockedReq_misses::total        37556                       # number of LoadLockedReq misses
system.cpu.dcache.demand_misses::cpu.data      4431610                       # number of demand (read+write) misses
system.cpu.dcache.demand_misses::total        4431610                       # number of demand (read+write) misses
system.cpu.dcache.overall_misses::cpu.data      4431610                       # number of overall misses
system.cpu.dcache.overall_misses::total       4431610                       # number of overall misses
system.cpu.dcache.ReadReq_miss_latency::cpu.data 167212483620                       # number of ReadReq miss cycles
system.cpu.dcache.ReadReq_miss_latency::total 167212483620                       # number of ReadReq miss cycles
system.cpu.dcache.WriteReq_miss_latency::cpu.data  52997057136                       # number of WriteReq miss cycles
system.cpu.dcache.WriteReq_miss_latency::total  52997057136                       # number of WriteReq miss cycles
system.cpu.dcache.LoadLockedReq_miss_latency::cpu.data    988904984                       # number of LoadLockedReq miss cycles
system.cpu.dcache.LoadLockedReq_miss_latency::total    988904984                       # number of LoadLockedReq miss cycles
system.cpu.dcache.demand_miss_latency::cpu.data 220209540756                       # number of demand (read+write) miss cycles
system.cpu.dcache.demand_miss_latency::total 220209540756                       # number of demand (read+write) miss cycles
system.cpu.dcache.overall_miss_latency::cpu.data 220209540756                       # number of overall miss cycles
system.cpu.dcache.overall_miss_latency::total 220209540756                       # number of overall miss cycles
system.cpu.dcache.ReadReq_accesses::cpu.data     16808704                       # number of ReadReq accesses(hits+misses)
system.cpu.dcache.ReadReq_accesses::total     16808704                       # number of ReadReq accesses(hits+misses)
system.cpu.dcache.WriteReq_accesses::cpu.data      8545156                       # number of WriteReq accesses(hits+misses)
system.cpu.dcache.WriteReq_accesses::total      8545156                       # number of WriteReq accesses(hits+misses)
system.cpu.dcache.LoadLockedReq_accesses::cpu.data       316246                       # number of LoadLockedReq accesses(hits+misses)
system.cpu.dcache.LoadLockedReq_accesses::total       316246                       # number of LoadLockedReq accesses(hits+misses)
system.cpu.dcache.StoreCondReq_accesses::cpu.data       315163                       # number of StoreCondReq accesses(hits+misses)
system.cpu.dcache.StoreCondReq_accesses::total       315163                       # number of StoreCondReq accesses(hits+misses)
system.cpu.dcache.demand_accesses::cpu.data     25353860                       # number of demand (read+write) accesses
system.cpu.dcache.demand_accesses::total     25353860                       # number of demand (read+write) accesses
system.cpu.dcache.overall_accesses::cpu.data     25353860                       # number of overall (read+write) accesses
system.cpu.dcache.overall_accesses::total     25353860                       # number of overall (read+write) accesses
system.cpu.dcache.ReadReq_miss_rate::cpu.data     0.211356                       # miss rate for ReadReq accesses
system.cpu.dcache.ReadReq_miss_rate::total     0.211356                       # miss rate for ReadReq accesses
system.cpu.dcache.WriteReq_miss_rate::cpu.data     0.102863                       # miss rate for WriteReq accesses
system.cpu.dcache.WriteReq_miss_rate::total     0.102863                       # miss rate for WriteReq accesses
system.cpu.dcache.LoadLockedReq_miss_rate::cpu.data     0.118756                       # miss rate for LoadLockedReq accesses
system.cpu.dcache.LoadLockedReq_miss_rate::total     0.118756                       # miss rate for LoadLockedReq accesses
system.cpu.dcache.demand_miss_rate::cpu.data     0.174790                       # miss rate for demand accesses
system.cpu.dcache.demand_miss_rate::total     0.174790                       # miss rate for demand accesses
system.cpu.dcache.overall_miss_rate::cpu.data     0.174790                       # miss rate for overall accesses
system.cpu.dcache.overall_miss_rate::total     0.174790                       # miss rate for overall accesses
system.cpu.dcache.ReadReq_avg_miss_latency::cpu.data 47067.265027                       # average ReadReq miss latency
system.cpu.dcache.ReadReq_avg_miss_latency::total 47067.265027                       # average ReadReq miss latency
system.cpu.dcache.WriteReq_avg_miss_latency::cpu.data 60293.677386                       # average WriteReq miss latency
system.cpu.dcache.WriteReq_avg_miss_latency::total 60293.677386                       # average WriteReq miss latency
system.cpu.dcache.LoadLockedReq_avg_miss_latency::cpu.data 26331.477900                       # average LoadLockedReq miss latency
system.cpu.dcache.LoadLockedReq_avg_miss_latency::total 26331.477900                       # average LoadLockedReq miss latency
system.cpu.dcache.demand_avg_miss_latency::cpu.data 49690.640818                       # average overall miss latency
system.cpu.dcache.demand_avg_miss_latency::total 49690.640818                       # average overall miss latency
system.cpu.dcache.overall_avg_miss_latency::cpu.data 49690.640818                       # average overall miss latency
system.cpu.dcache.overall_avg_miss_latency::total 49690.640818                       # average overall miss latency
system.cpu.dcache.blocked_cycles::no_mshrs            0                       # number of cycles access was blocked
system.cpu.dcache.blocked_cycles::no_targets            0                       # number of cycles access was blocked
system.cpu.dcache.blocked::no_mshrs                 0                       # number of cycles access was blocked
system.cpu.dcache.blocked::no_targets               0                       # number of cycles access was blocked
system.cpu.dcache.avg_blocked_cycles::no_mshrs          nan                       # average number of cycles each access was blocked
system.cpu.dcache.avg_blocked_cycles::no_targets          nan                       # average number of cycles each access was blocked
system.cpu.dcache.fast_writes                       0                       # number of fast writes performed
system.cpu.dcache.cache_copies                      0                       # number of cache copies performed
system.cpu.dcache.writebacks::writebacks      1181389                       # number of writebacks
system.cpu.dcache.writebacks::total           1181389                       # number of writebacks
system.cpu.dcache.ReadReq_mshr_hits::cpu.data       244539                       # number of ReadReq MSHR hits
system.cpu.dcache.ReadReq_mshr_hits::total       244539                       # number of ReadReq MSHR hits
system.cpu.dcache.WriteReq_mshr_hits::cpu.data       397985                       # number of WriteReq MSHR hits
system.cpu.dcache.WriteReq_mshr_hits::total       397985                       # number of WriteReq MSHR hits
system.cpu.dcache.LoadLockedReq_mshr_hits::cpu.data           29                       # number of LoadLockedReq MSHR hits
system.cpu.dcache.LoadLockedReq_mshr_hits::total           29                       # number of LoadLockedReq MSHR hits
system.cpu.dcache.demand_mshr_hits::cpu.data       642524                       # number of demand (read+write) MSHR hits
system.cpu.dcache.demand_mshr_hits::total       642524                       # number of demand (read+write) MSHR hits
system.cpu.dcache.overall_mshr_hits::cpu.data       642524                       # number of overall MSHR hits
system.cpu.dcache.overall_mshr_hits::total       642524                       # number of overall MSHR hits
system.cpu.dcache.ReadReq_mshr_misses::cpu.data      3308089                       # number of ReadReq MSHR misses
system.cpu.dcache.ReadReq_mshr_misses::total      3308089                       # number of ReadReq MSHR misses
system.cpu.dcache.WriteReq_mshr_misses::cpu.data       480997                       # number of WriteReq MSHR misses
system.cpu.dcache.WriteReq_mshr_misses::total       480997                       # number of WriteReq MSHR misses
system.cpu.dcache.LoadLockedReq_mshr_misses::cpu.data        37527                       # number of LoadLockedReq MSHR misses
system.cpu.dcache.LoadLockedReq_mshr_misses::total        37527                       # number of LoadLockedReq MSHR misses
system.cpu.dcache.demand_mshr_misses::cpu.data      3789086                       # number of demand (read+write) MSHR misses
system.cpu.dcache.demand_mshr_misses::total      3789086                       # number of demand (read+write) MSHR misses
system.cpu.dcache.overall_mshr_misses::cpu.data      3789086                       # number of overall MSHR misses
system.cpu.dcache.overall_mshr_misses::total      3789086                       # number of overall MSHR misses
system.cpu.dcache.ReadReq_mshr_uncacheable::cpu.data         6973                       # number of ReadReq MSHR uncacheable
system.cpu.dcache.ReadReq_mshr_uncacheable::total         6973                       # number of ReadReq MSHR uncacheable
system.cpu.dcache.WriteReq_mshr_uncacheable::cpu.data        10230                       # number of WriteReq MSHR uncacheable
system.cpu.dcache.WriteReq_mshr_uncacheable::total        10230                       # number of WriteReq MSHR uncacheable
system.cpu.dcache.overall_mshr_uncacheable_misses::cpu.data        17203                       # number of overall MSHR uncacheable misses
system.cpu.dcache.overall_mshr_uncacheable_misses::total        17203                       # number of overall MSHR uncacheable misses
system.cpu.dcache.ReadReq_mshr_miss_latency::cpu.data 155367779380                       # number of ReadReq MSHR miss cycles
system.cpu.dcache.ReadReq_mshr_miss_latency::total 155367779380                       # number of ReadReq MSHR miss cycles
system.cpu.dcache.WriteReq_mshr_miss_latency::cpu.data  27442235678                       # number of WriteReq MSHR miss cycles
system.cpu.dcache.WriteReq_mshr_miss_latency::total  27442235678                       # number of WriteReq MSHR miss cycles
system.cpu.dcache.LoadLockedReq_mshr_miss_latency::cpu.data    930303266                       # number of LoadLockedReq MSHR miss cycles
system.cpu.dcache.LoadLockedReq_mshr_miss_latency::total    930303266                       # number of LoadLockedReq MSHR miss cycles
system.cpu.dcache.demand_mshr_miss_latency::cpu.data 182810015058                       # number of demand (read+write) MSHR miss cycles
system.cpu.dcache.demand_mshr_miss_latency::total 182810015058                       # number of demand (read+write) MSHR miss cycles
system.cpu.dcache.overall_mshr_miss_latency::cpu.data 182810015058                       # number of overall MSHR miss cycles
system.cpu.dcache.overall_mshr_miss_latency::total 182810015058                       # number of overall MSHR miss cycles
system.cpu.dcache.ReadReq_mshr_uncacheable_latency::cpu.data   1445562000                       # number of ReadReq MSHR uncacheable cycles
system.cpu.dcache.ReadReq_mshr_uncacheable_latency::total   1445562000                       # number of ReadReq MSHR uncacheable cycles
system.cpu.dcache.WriteReq_mshr_uncacheable_latency::cpu.data   2174529500                       # number of WriteReq MSHR uncacheable cycles
system.cpu.dcache.WriteReq_mshr_uncacheable_latency::total   2174529500                       # number of WriteReq MSHR uncacheable cycles
system.cpu.dcache.overall_mshr_uncacheable_latency::cpu.data   3620091500                       # number of overall MSHR uncacheable cycles
system.cpu.dcache.overall_mshr_uncacheable_latency::total   3620091500                       # number of overall MSHR uncacheable cycles
system.cpu.dcache.ReadReq_mshr_miss_rate::cpu.data     0.196808                       # mshr miss rate for ReadReq accesses
system.cpu.dcache.ReadReq_mshr_miss_rate::total     0.196808                       # mshr miss rate for ReadReq accesses
system.cpu.dcache.WriteReq_mshr_miss_rate::cpu.data     0.056289                       # mshr miss rate for WriteReq accesses
system.cpu.dcache.WriteReq_mshr_miss_rate::total     0.056289                       # mshr miss rate for WriteReq accesses
system.cpu.dcache.LoadLockedReq_mshr_miss_rate::cpu.data     0.118664                       # mshr miss rate for LoadLockedReq accesses
system.cpu.dcache.LoadLockedReq_mshr_miss_rate::total     0.118664                       # mshr miss rate for LoadLockedReq accesses
system.cpu.dcache.demand_mshr_miss_rate::cpu.data     0.149448                       # mshr miss rate for demand accesses
system.cpu.dcache.demand_mshr_miss_rate::total     0.149448                       # mshr miss rate for demand accesses
system.cpu.dcache.overall_mshr_miss_rate::cpu.data     0.149448                       # mshr miss rate for overall accesses
system.cpu.dcache.overall_mshr_miss_rate::total     0.149448                       # mshr miss rate for overall accesses
system.cpu.dcache.ReadReq_avg_mshr_miss_latency::cpu.data 46966.021585                       # average ReadReq mshr miss latency
system.cpu.dcache.ReadReq_avg_mshr_miss_latency::total 46966.021585                       # average ReadReq mshr miss latency
system.cpu.dcache.WriteReq_avg_mshr_miss_latency::cpu.data 57052.820866                       # average WriteReq mshr miss latency
system.cpu.dcache.WriteReq_avg_mshr_miss_latency::total 57052.820866                       # average WriteReq mshr miss latency
system.cpu.dcache.LoadLockedReq_avg_mshr_miss_latency::cpu.data 24790.238122                       # average LoadLockedReq mshr miss latency
system.cpu.dcache.LoadLockedReq_avg_mshr_miss_latency::total 24790.238122                       # average LoadLockedReq mshr miss latency
system.cpu.dcache.demand_avg_mshr_miss_latency::cpu.data 48246.467633                       # average overall mshr miss latency
system.cpu.dcache.demand_avg_mshr_miss_latency::total 48246.467633                       # average overall mshr miss latency
system.cpu.dcache.overall_avg_mshr_miss_latency::cpu.data 48246.467633                       # average overall mshr miss latency
system.cpu.dcache.overall_avg_mshr_miss_latency::total 48246.467633                       # average overall mshr miss latency
system.cpu.dcache.ReadReq_avg_mshr_uncacheable_latency::cpu.data 207308.475549                       # average ReadReq mshr uncacheable latency
system.cpu.dcache.ReadReq_avg_mshr_uncacheable_latency::total 207308.475549                       # average ReadReq mshr uncacheable latency
system.cpu.dcache.WriteReq_avg_mshr_uncacheable_latency::cpu.data 212563.978495                       # average WriteReq mshr uncacheable latency
system.cpu.dcache.WriteReq_avg_mshr_uncacheable_latency::total 212563.978495                       # average WriteReq mshr uncacheable latency
system.cpu.dcache.overall_avg_mshr_uncacheable_latency::cpu.data 210433.732489                       # average overall mshr uncacheable latency
system.cpu.dcache.overall_avg_mshr_uncacheable_latency::total 210433.732489                       # average overall mshr uncacheable latency
system.cpu.dcache.no_allocate_misses                0                       # Number of misses that were no-allocate
system.cpu.icache.tags.replacements           2402479                       # number of replacements
system.cpu.icache.tags.tagsinuse           255.969676                       # Cycle average of tags in use
system.cpu.icache.tags.total_refs            33693426                       # Total number of references to valid blocks.
system.cpu.icache.tags.sampled_refs           2402735                       # Sample count of references to valid blocks.
system.cpu.icache.tags.avg_refs             14.022947                       # Average number of references to valid blocks.
system.cpu.icache.tags.warmup_cycle        1236892250                       # Cycle when the warmup percentage was hit.
system.cpu.icache.tags.occ_blocks::cpu.inst   255.969676                       # Average occupied blocks per requestor
system.cpu.icache.tags.occ_percent::cpu.inst     0.999882                       # Average percentage of cache occupancy
system.cpu.icache.tags.occ_percent::total     0.999882                       # Average percentage of cache occupancy
system.cpu.icache.tags.occ_task_id_blocks::1024          256                       # Occupied blocks per task id
system.cpu.icache.tags.age_task_id_blocks_1024::0          107                       # Occupied blocks per task id
system.cpu.icache.tags.age_task_id_blocks_1024::1          104                       # Occupied blocks per task id
system.cpu.icache.tags.age_task_id_blocks_1024::2           45                       # Occupied blocks per task id
system.cpu.icache.tags.occ_task_id_percent::1024            1                       # Percentage of cache occupancy per task id
system.cpu.icache.tags.tag_accesses         146788578                       # Number of tag accesses
system.cpu.icache.tags.data_accesses        146788578                       # Number of data accesses
system.cpu.icache.ReadReq_hits::cpu.inst     33693426                       # number of ReadReq hits
system.cpu.icache.ReadReq_hits::total        33693426                       # number of ReadReq hits
system.cpu.icache.demand_hits::cpu.inst      33693426                       # number of demand (read+write) hits
system.cpu.icache.demand_hits::total         33693426                       # number of demand (read+write) hits
system.cpu.icache.overall_hits::cpu.inst     33693426                       # number of overall hits
system.cpu.icache.overall_hits::total        33693426                       # number of overall hits
system.cpu.icache.ReadReq_misses::cpu.inst      2402975                       # number of ReadReq misses
system.cpu.icache.ReadReq_misses::total       2402975                       # number of ReadReq misses
system.cpu.icache.demand_misses::cpu.inst      2402975                       # number of demand (read+write) misses
system.cpu.icache.demand_misses::total        2402975                       # number of demand (read+write) misses
system.cpu.icache.overall_misses::cpu.inst      2402975                       # number of overall misses
system.cpu.icache.overall_misses::total       2402975                       # number of overall misses
system.cpu.icache.ReadReq_miss_latency::cpu.inst  66496789414                       # number of ReadReq miss cycles
system.cpu.icache.ReadReq_miss_latency::total  66496789414                       # number of ReadReq miss cycles
system.cpu.icache.demand_miss_latency::cpu.inst  66496789414                       # number of demand (read+write) miss cycles
system.cpu.icache.demand_miss_latency::total  66496789414                       # number of demand (read+write) miss cycles
system.cpu.icache.overall_miss_latency::cpu.inst  66496789414                       # number of overall miss cycles
system.cpu.icache.overall_miss_latency::total  66496789414                       # number of overall miss cycles
system.cpu.icache.ReadReq_accesses::cpu.inst     36096401                       # number of ReadReq accesses(hits+misses)
system.cpu.icache.ReadReq_accesses::total     36096401                       # number of ReadReq accesses(hits+misses)
system.cpu.icache.demand_accesses::cpu.inst     36096401                       # number of demand (read+write) accesses
system.cpu.icache.demand_accesses::total     36096401                       # number of demand (read+write) accesses
system.cpu.icache.overall_accesses::cpu.inst     36096401                       # number of overall (read+write) accesses
system.cpu.icache.overall_accesses::total     36096401                       # number of overall (read+write) accesses
system.cpu.icache.ReadReq_miss_rate::cpu.inst     0.066571                       # miss rate for ReadReq accesses
system.cpu.icache.ReadReq_miss_rate::total     0.066571                       # miss rate for ReadReq accesses
system.cpu.icache.demand_miss_rate::cpu.inst     0.066571                       # miss rate for demand accesses
system.cpu.icache.demand_miss_rate::total     0.066571                       # miss rate for demand accesses
system.cpu.icache.overall_miss_rate::cpu.inst     0.066571                       # miss rate for overall accesses
system.cpu.icache.overall_miss_rate::total     0.066571                       # miss rate for overall accesses
system.cpu.icache.ReadReq_avg_miss_latency::cpu.inst 27672.692980                       # average ReadReq miss latency
system.cpu.icache.ReadReq_avg_miss_latency::total 27672.692980                       # average ReadReq miss latency
system.cpu.icache.demand_avg_miss_latency::cpu.inst 27672.692980                       # average overall miss latency
system.cpu.icache.demand_avg_miss_latency::total 27672.692980                       # average overall miss latency
system.cpu.icache.overall_avg_miss_latency::cpu.inst 27672.692980                       # average overall miss latency
system.cpu.icache.overall_avg_miss_latency::total 27672.692980                       # average overall miss latency
system.cpu.icache.blocked_cycles::no_mshrs            0                       # number of cycles access was blocked
system.cpu.icache.blocked_cycles::no_targets            0                       # number of cycles access was blocked
system.cpu.icache.blocked::no_mshrs                 0                       # number of cycles access was blocked
system.cpu.icache.blocked::no_targets               0                       # number of cycles access was blocked
system.cpu.icache.avg_blocked_cycles::no_mshrs          nan                       # average number of cycles each access was blocked
system.cpu.icache.avg_blocked_cycles::no_targets          nan                       # average number of cycles each access was blocked
system.cpu.icache.fast_writes                       0                       # number of fast writes performed
system.cpu.icache.cache_copies                      0                       # number of cache copies performed
system.cpu.icache.ReadReq_mshr_misses::cpu.inst      2402975                       # number of ReadReq MSHR misses
system.cpu.icache.ReadReq_mshr_misses::total      2402975                       # number of ReadReq MSHR misses
system.cpu.icache.demand_mshr_misses::cpu.inst      2402975                       # number of demand (read+write) MSHR misses
system.cpu.icache.demand_mshr_misses::total      2402975                       # number of demand (read+write) MSHR misses
system.cpu.icache.overall_mshr_misses::cpu.inst      2402975                       # number of overall MSHR misses
system.cpu.icache.overall_mshr_misses::total      2402975                       # number of overall MSHR misses
system.cpu.icache.ReadReq_mshr_miss_latency::cpu.inst  62676677586                       # number of ReadReq MSHR miss cycles
system.cpu.icache.ReadReq_mshr_miss_latency::total  62676677586                       # number of ReadReq MSHR miss cycles
system.cpu.icache.demand_mshr_miss_latency::cpu.inst  62676677586                       # number of demand (read+write) MSHR miss cycles
system.cpu.icache.demand_mshr_miss_latency::total  62676677586                       # number of demand (read+write) MSHR miss cycles
system.cpu.icache.overall_mshr_miss_latency::cpu.inst  62676677586                       # number of overall MSHR miss cycles
system.cpu.icache.overall_mshr_miss_latency::total  62676677586                       # number of overall MSHR miss cycles
system.cpu.icache.ReadReq_mshr_miss_rate::cpu.inst     0.066571                       # mshr miss rate for ReadReq accesses
system.cpu.icache.ReadReq_mshr_miss_rate::total     0.066571                       # mshr miss rate for ReadReq accesses
system.cpu.icache.demand_mshr_miss_rate::cpu.inst     0.066571                       # mshr miss rate for demand accesses
system.cpu.icache.demand_mshr_miss_rate::total     0.066571                       # mshr miss rate for demand accesses
system.cpu.icache.overall_mshr_miss_rate::cpu.inst     0.066571                       # mshr miss rate for overall accesses
system.cpu.icache.overall_mshr_miss_rate::total     0.066571                       # mshr miss rate for overall accesses
system.cpu.icache.ReadReq_avg_mshr_miss_latency::cpu.inst 26082.950337                       # average ReadReq mshr miss latency
system.cpu.icache.ReadReq_avg_mshr_miss_latency::total 26082.950337                       # average ReadReq mshr miss latency
system.cpu.icache.demand_avg_mshr_miss_latency::cpu.inst 26082.950337                       # average overall mshr miss latency
[...]
system.l2.overall_mshr_uncacheable_misses::cpu.data        17203                       # number of overall MSHR uncacheable misses
system.l2.overall_mshr_uncacheable_misses::total        17203                       # number of overall MSHR uncacheable misses
system.l2.ReadReq_mshr_miss_latency::cpu.inst  33972448744                       # number of ReadReq MSHR miss cycles
system.l2.ReadReq_mshr_miss_latency::cpu.data 113990401686                       # number of ReadReq MSHR miss cycles
system.l2.ReadReq_mshr_miss_latency::total 147962850430                       # number of ReadReq MSHR miss cycles
system.l2.UpgradeReq_mshr_miss_latency::cpu.data       142008                       # number of UpgradeReq MSHR miss cycles
system.l2.UpgradeReq_mshr_miss_latency::total       142008                       # number of UpgradeReq MSHR miss cycles
system.l2.ReadExReq_mshr_miss_latency::cpu.data  21248277814                       # number of ReadExReq MSHR miss cycles
system.l2.ReadExReq_mshr_miss_latency::total  21248277814                       # number of ReadExReq MSHR miss cycles
system.l2.demand_mshr_miss_latency::cpu.inst  33972448744                       # number of demand (read+write) MSHR miss cycles
system.l2.demand_mshr_miss_latency::cpu.data 135238679500                       # number of demand (read+write) MSHR miss cycles
system.l2.demand_mshr_miss_latency::total 169211128244                       # number of demand (read+write) MSHR miss cycles
system.l2.overall_mshr_miss_latency::cpu.inst  33972448744                       # number of overall MSHR miss cycles
system.l2.overall_mshr_miss_latency::cpu.data 135238679500                       # number of overall MSHR miss cycles
system.l2.overall_mshr_miss_latency::total 169211128244                       # number of overall MSHR miss cycles
system.l2.ReadReq_mshr_uncacheable_latency::cpu.data   1347935000                       # number of ReadReq MSHR uncacheable cycles
system.l2.ReadReq_mshr_uncacheable_latency::total   1347935000                       # number of ReadReq MSHR uncacheable cycles
system.l2.WriteReq_mshr_uncacheable_latency::cpu.data   2041539500                       # number of WriteReq MSHR uncacheable cycles
system.l2.WriteReq_mshr_uncacheable_latency::total   2041539500                       # number of WriteReq MSHR uncacheable cycles
system.l2.overall_mshr_uncacheable_latency::cpu.data   3389474500                       # number of overall MSHR uncacheable cycles
system.l2.overall_mshr_uncacheable_latency::total   3389474500                       # number of overall MSHR uncacheable cycles
system.l2.ReadReq_mshr_miss_rate::cpu.inst     0.211820                       # mshr miss rate for ReadReq accesses
system.l2.ReadReq_mshr_miss_rate::cpu.data     0.548135                       # mshr miss rate for ReadReq accesses
system.l2.ReadReq_mshr_miss_rate::total      0.407553                       # mshr miss rate for ReadReq accesses
system.l2.UpgradeReq_mshr_miss_rate::cpu.data     0.727273                       # mshr miss rate for UpgradeReq accesses
system.l2.UpgradeReq_mshr_miss_rate::total     0.727273                       # mshr miss rate for UpgradeReq accesses
system.l2.ReadExReq_mshr_miss_rate::cpu.data     0.681897                       # mshr miss rate for ReadExReq accesses
system.l2.ReadExReq_mshr_miss_rate::total     0.681897                       # mshr miss rate for ReadExReq accesses
system.l2.demand_mshr_miss_rate::cpu.inst     0.211820                       # mshr miss rate for demand accesses
system.l2.demand_mshr_miss_rate::cpu.data     0.564949                       # mshr miss rate for demand accesses
system.l2.demand_mshr_miss_rate::total       0.428736                       # mshr miss rate for demand accesses
system.l2.overall_mshr_miss_rate::cpu.inst     0.211820                       # mshr miss rate for overall accesses
system.l2.overall_mshr_miss_rate::cpu.data     0.564949                       # mshr miss rate for overall accesses
system.l2.overall_mshr_miss_rate::total      0.428736                       # mshr miss rate for overall accesses
system.l2.ReadReq_avg_mshr_miss_latency::cpu.inst 66745.218923                       # average ReadReq mshr miss latency
system.l2.ReadReq_avg_mshr_miss_latency::cpu.data 62159.302452                       # average ReadReq mshr miss latency
system.l2.ReadReq_avg_mshr_miss_latency::total 63155.606864                       # average ReadReq mshr miss latency
system.l2.UpgradeReq_avg_mshr_miss_latency::cpu.data        17751                       # average UpgradeReq mshr miss latency
system.l2.UpgradeReq_avg_mshr_miss_latency::total        17751                       # average UpgradeReq mshr miss latency
system.l2.ReadExReq_avg_mshr_miss_latency::cpu.data 64783.112384                       # average ReadExReq mshr miss latency
system.l2.ReadExReq_avg_mshr_miss_latency::total 64783.112384                       # average ReadExReq mshr miss latency
system.l2.demand_avg_mshr_miss_latency::cpu.inst 66745.218923                       # average overall mshr miss latency
system.l2.demand_avg_mshr_miss_latency::cpu.data 62557.383916                       # average overall mshr miss latency
system.l2.demand_avg_mshr_miss_latency::total 63355.473184                       # average overall mshr miss latency
system.l2.overall_avg_mshr_miss_latency::cpu.inst 66745.218923                       # average overall mshr miss latency
system.l2.overall_avg_mshr_miss_latency::cpu.data 62557.383916                       # average overall mshr miss latency
system.l2.overall_avg_mshr_miss_latency::total 63355.473184                       # average overall mshr miss latency
system.l2.ReadReq_avg_mshr_uncacheable_latency::cpu.data 193307.758497                       # average ReadReq mshr uncacheable latency
system.l2.ReadReq_avg_mshr_uncacheable_latency::total 193307.758497                       # average ReadReq mshr uncacheable latency
system.l2.WriteReq_avg_mshr_uncacheable_latency::cpu.data 199563.978495                       # average WriteReq mshr uncacheable latency
system.l2.WriteReq_avg_mshr_uncacheable_latency::total 199563.978495                       # average WriteReq mshr uncacheable latency
system.l2.overall_avg_mshr_uncacheable_latency::cpu.data 197028.105563                       # average overall mshr uncacheable latency
system.l2.overall_avg_mshr_uncacheable_latency::total 197028.105563                       # average overall mshr uncacheable latency
system.l2.no_allocate_misses                        0                       # Number of misses that were no-allocate
system.membus.trans_dist::ReadReq             2350012                       # Transaction distribution
system.membus.trans_dist::ReadResp            2350010                       # Transaction distribution
system.membus.trans_dist::WriteReq              10230                       # Transaction distribution
system.membus.trans_dist::WriteResp             10230                       # Transaction distribution
system.membus.trans_dist::Writeback            470014                       # Transaction distribution
system.membus.trans_dist::WriteInvalidateReq        44448                       # Transaction distribution
system.membus.trans_dist::WriteInvalidateResp        44448                       # Transaction distribution
system.membus.trans_dist::UpgradeReq               72                       # Transaction distribution
system.membus.trans_dist::UpgradeResp              72                       # Transaction distribution
system.membus.trans_dist::ReadExReq            327927                       # Transaction distribution
system.membus.trans_dist::ReadExResp           327927                       # Transaction distribution
system.membus.trans_dist::BadAddressError            2                       # Transaction distribution
system.membus.pkt_count_system.iocache.mem_side::system.mem_ctrls.port       133601                       # Packet count per connected master and slave (bytes)
system.membus.pkt_count_system.iocache.mem_side::total       133601                       # Packet count per connected master and slave (bytes)
system.membus.pkt_count_system.l2.mem_side::system.bridge.slave        34406                       # Packet count per connected master and slave (bytes)
system.membus.pkt_count_system.l2.mem_side::system.mem_ctrls.port      5767125                       # Packet count per connected master and slave (bytes)
system.membus.pkt_count_system.l2.mem_side::system.membus.badaddr_responder.pio            4                       # Packet count per connected master and slave (bytes)
system.membus.pkt_count_system.l2.mem_side::total      5801535                       # Packet count per connected master and slave (bytes)
system.membus.pkt_count::total                5935136                       # Packet count per connected master and slave (bytes)
system.membus.pkt_size_system.iocache.mem_side::system.mem_ctrls.port      5692352                       # Cumulative packet size per connected master and slave (bytes)
system.membus.pkt_size_system.iocache.mem_side::total      5692352                       # Cumulative packet size per connected master and slave (bytes)
system.membus.pkt_size_system.l2.mem_side::system.bridge.slave        46074                       # Cumulative packet size per connected master and slave (bytes)
system.membus.pkt_size_system.l2.mem_side::system.mem_ctrls.port    198158528                       # Cumulative packet size per connected master and slave (bytes)
system.membus.pkt_size_system.l2.mem_side::total    198204602                       # Cumulative packet size per connected master and slave (bytes)
system.membus.pkt_size::total               203896954                       # Cumulative packet size per connected master and slave (bytes)
system.membus.snoops                              256                       # Total snoops (count)
system.membus.snoop_fanout::samples           3202806                       # Request fanout histogram
system.membus.snoop_fanout::mean                    1                       # Request fanout histogram
system.membus.snoop_fanout::stdev                   0                       # Request fanout histogram
system.membus.snoop_fanout::underflows              0      0.00%      0.00% # Request fanout histogram
system.membus.snoop_fanout::0                       0      0.00%      0.00% # Request fanout histogram
system.membus.snoop_fanout::1                 3202806    100.00%    100.00% # Request fanout histogram
system.membus.snoop_fanout::2                       0      0.00%    100.00% # Request fanout histogram
system.membus.snoop_fanout::overflows               0      0.00%    100.00% # Request fanout histogram
system.membus.snoop_fanout::min_value               1                       # Request fanout histogram
system.membus.snoop_fanout::max_value               1                       # Request fanout histogram
system.membus.snoop_fanout::total             3202806                       # Request fanout histogram
system.membus.reqLayer0.occupancy            32114999                       # Layer occupancy (ticks)
system.membus.reqLayer0.utilization               0.0                       # Layer utilization (%)
system.membus.reqLayer1.occupancy          5590669768                       # Layer occupancy (ticks)
system.membus.reqLayer1.utilization               0.2                       # Layer utilization (%)
system.membus.reqLayer2.occupancy                3000                       # Layer occupancy (ticks)
system.membus.reqLayer2.utilization               0.0                       # Layer utilization (%)
system.membus.respLayer1.occupancy           45584721                       # Layer occupancy (ticks)
system.membus.respLayer1.utilization              0.0                       # Layer utilization (%)
system.membus.respLayer2.occupancy        14193396748                       # Layer occupancy (ticks)
system.membus.respLayer2.utilization              0.6                       # Layer utilization (%)
system.tol2bus.trans_dist::ReadReq            5755762                       # Transaction distribution
system.tol2bus.trans_dist::ReadResp           5755644                       # Transaction distribution
system.tol2bus.trans_dist::WriteReq             10230                       # Transaction distribution
system.tol2bus.trans_dist::WriteResp            10230                       # Transaction distribution
system.tol2bus.trans_dist::Writeback          1181389                       # Transaction distribution
system.tol2bus.trans_dist::WriteInvalidateReq        44533                       # Transaction distribution
system.tol2bus.trans_dist::UpgradeReq              11                       # Transaction distribution
system.tol2bus.trans_dist::UpgradeResp             11                       # Transaction distribution
system.tol2bus.trans_dist::ReadExReq           480998                       # Transaction distribution
system.tol2bus.trans_dist::ReadExResp          480998                       # Transaction distribution
system.tol2bus.trans_dist::BadAddressError            2                       # Transaction distribution
system.tol2bus.pkt_count_system.cpu.icache.mem_side::system.l2.cpu_side      4805897                       # Packet count per connected master and slave (bytes)
system.tol2bus.pkt_count_system.cpu.dcache.mem_side::system.l2.cpu_side      8869116                       # Packet count per connected master and slave (bytes)
system.tol2bus.pkt_count::total              13675013                       # Packet count per connected master and slave (bytes)
system.tol2bus.pkt_size_system.cpu.icache.mem_side::system.l2.cpu_side    153787008                       # Cumulative packet size per connected master and slave (bytes)
system.tol2bus.pkt_size_system.cpu.dcache.mem_side::system.l2.cpu_side    320563450                       # Cumulative packet size per connected master and slave (bytes)
system.tol2bus.pkt_size::total              474350458                       # Cumulative packet size per connected master and slave (bytes)
system.tol2bus.snoops                           44890                       # Total snoops (count)
system.tol2bus.snoop_fanout::samples          7472923                       # Request fanout histogram
system.tol2bus.snoop_fanout::mean            1.005987                       # Request fanout histogram
system.tol2bus.snoop_fanout::stdev           0.077146                       # Request fanout histogram
system.tol2bus.snoop_fanout::underflows             0      0.00%      0.00% # Request fanout histogram
system.tol2bus.snoop_fanout::0                      0      0.00%      0.00% # Request fanout histogram
system.tol2bus.snoop_fanout::1                7428180     99.40%     99.40% # Request fanout histogram
system.tol2bus.snoop_fanout::2                  44743      0.60%    100.00% # Request fanout histogram
system.tol2bus.snoop_fanout::overflows              0      0.00%    100.00% # Request fanout histogram
system.tol2bus.snoop_fanout::min_value              1                       # Request fanout histogram
system.tol2bus.snoop_fanout::max_value              2                       # Request fanout histogram
system.tol2bus.snoop_fanout::total            7472923                       # Request fanout histogram
system.tol2bus.reqLayer0.occupancy         4900594000                       # Layer occupancy (ticks)
system.tol2bus.reqLayer0.utilization              0.2                       # Layer utilization (%)
system.tol2bus.snoopLayer0.occupancy           142500                       # Layer occupancy (ticks)
system.tol2bus.snoopLayer0.utilization            0.0                       # Layer utilization (%)
system.tol2bus.respLayer0.occupancy        3712286414                       # Layer occupancy (ticks)
system.tol2bus.respLayer0.utilization             0.1                       # Layer utilization (%)
system.tol2bus.respLayer1.occupancy        6234796676                       # Layer occupancy (ticks)
system.tol2bus.respLayer1.utilization             0.3                       # Layer utilization (%)
system.tsunami.ethernet.descDMAReads                0                       # Number of descriptors the device read w/ DMA
system.tsunami.ethernet.descDMAWrites               0                       # Number of descriptors the device wrote w/ DMA
system.tsunami.ethernet.descDmaReadBytes            0                       # number of descriptor bytes read w/ DMA
system.tsunami.ethernet.descDmaWriteBytes            0                       # number of descriptor bytes write w/ DMA
system.tsunami.ethernet.postedSwi                   0                       # number of software interrupts posted to CPU
system.tsunami.ethernet.coalescedSwi              nan                       # average number of Swi's coalesced into each post
system.tsunami.ethernet.totalSwi                    0                       # total number of Swi written to ISR
system.tsunami.ethernet.postedRxIdle                0                       # number of rxIdle interrupts posted to CPU
system.tsunami.ethernet.coalescedRxIdle           nan                       # average number of RxIdle's coalesced into each post
system.tsunami.ethernet.totalRxIdle                 0                       # total number of RxIdle written to ISR
system.tsunami.ethernet.postedRxOk                  0                       # number of RxOk interrupts posted to CPU
system.tsunami.ethernet.coalescedRxOk             nan                       # average number of RxOk's coalesced into each post
system.tsunami.ethernet.totalRxOk                   0                       # total number of RxOk written to ISR
system.tsunami.ethernet.postedRxDesc                0                       # number of RxDesc interrupts posted to CPU
system.tsunami.ethernet.coalescedRxDesc           nan                       # average number of RxDesc's coalesced into each post
system.tsunami.ethernet.totalRxDesc                 0                       # total number of RxDesc written to ISR
system.tsunami.ethernet.postedTxOk                  0                       # number of TxOk interrupts posted to CPU
system.tsunami.ethernet.coalescedTxOk             nan                       # average number of TxOk's coalesced into each post
system.tsunami.ethernet.totalTxOk                   0                       # total number of TxOk written to ISR
system.tsunami.ethernet.postedTxIdle                0                       # number of TxIdle interrupts posted to CPU
system.tsunami.ethernet.coalescedTxIdle           nan                       # average number of TxIdle's coalesced into each post
system.tsunami.ethernet.totalTxIdle                 0                       # total number of TxIdle written to ISR
system.tsunami.ethernet.postedTxDesc                0                       # number of TxDesc interrupts posted to CPU
system.tsunami.ethernet.coalescedTxDesc           nan                       # average number of TxDesc's coalesced into each post
system.tsunami.ethernet.totalTxDesc                 0                       # total number of TxDesc written to ISR
system.tsunami.ethernet.postedRxOrn                 0                       # number of RxOrn posted to CPU
system.tsunami.ethernet.coalescedRxOrn            nan                       # average number of RxOrn's coalesced into each post
system.tsunami.ethernet.totalRxOrn                  0                       # total number of RxOrn written to ISR
system.tsunami.ethernet.coalescedTotal            nan                       # average number of interrupts coalesced into each post
system.tsunami.ethernet.postedInterrupts            0                       # number of posts to CPU
system.tsunami.ethernet.droppedPackets              0                       # number of packets dropped

---------- End Simulation Statistics   ----------
