
---------- Begin Simulation Statistics ----------
sim_seconds                                  0.001102                       # Number of seconds simulated
sim_ticks                                  1101925500                       # Number of ticks simulated
final_tick                               2255541568000                       # Number of ticks from beginning of simulation (restored from checkpoints and never reset)
sim_freq                                 1000000000000                       # Frequency of simulated ticks
host_inst_rate                               27896721                       # Simulator instruction rate (inst/s)
host_op_rate                                 27896653                       # Simulator op (including micro ops) rate (op/s)
host_tick_rate                              313727359                       # Simulator tick rate (ticks/s)
host_mem_usage                                 734408                       # Number of bytes of host memory used
host_seconds                                     3.51                       # Real time elapsed on the host
sim_insts                                    97983059                       # Number of instructions simulated
sim_ops                                      97983059                       # Number of ops (including micro ops) simulated
system.voltage_domain.voltage                       1                       # Voltage in Volts
system.clk_domain.clock                          1000                       # Clock period in ticks
system.mem_ctrls.bytes_read::switch_cpus.inst       344064                       # Number of bytes read from this memory
system.mem_ctrls.bytes_read::switch_cpus.data       921216                       # Number of bytes read from this memory
system.mem_ctrls.bytes_read::total            1265280                       # Number of bytes read from this memory
system.mem_ctrls.bytes_inst_read::switch_cpus.inst       344064                       # Number of instructions bytes read from this memory
system.mem_ctrls.bytes_inst_read::total        344064                       # Number of instructions bytes read from this memory
system.mem_ctrls.bytes_written::writebacks       583680                       # Number of bytes written to this memory
system.mem_ctrls.bytes_written::total          583680                       # Number of bytes written to this memory
system.mem_ctrls.num_reads::switch_cpus.inst         5376                       # Number of read requests responded to by this memory
system.mem_ctrls.num_reads::switch_cpus.data        14394                       # Number of read requests responded to by this memory
system.mem_ctrls.num_reads::total               19770                       # Number of read requests responded to by this memory
system.mem_ctrls.num_writes::writebacks          9120                       # Number of write requests responded to by this memory
system.mem_ctrls.num_writes::total               9120                       # Number of write requests responded to by this memory
system.mem_ctrls.bw_read::switch_cpus.inst    312238895                       # Total read bandwidth from this memory (bytes/s)
system.mem_ctrls.bw_read::switch_cpus.data    836005701                       # Total read bandwidth from this memory (bytes/s)
system.mem_ctrls.bw_read::total            1148244595                       # Total read bandwidth from this memory (bytes/s)
system.mem_ctrls.bw_inst_read::switch_cpus.inst    312238895                       # Instruction read bandwidth from this memory (bytes/s)
system.mem_ctrls.bw_inst_read::total        312238895                       # Instruction read bandwidth from this memory (bytes/s)
system.mem_ctrls.bw_write::writebacks       529690982                       # Write bandwidth from this memory (bytes/s)
system.mem_ctrls.bw_write::total            529690982                       # Write bandwidth from this memory (bytes/s)
system.mem_ctrls.bw_total::writebacks       529690982                       # Total bandwidth to/from this memory (bytes/s)
system.mem_ctrls.bw_total::switch_cpus.inst    312238895                       # Total bandwidth to/from this memory (bytes/s)
system.mem_ctrls.bw_total::switch_cpus.data    836005701                       # Total bandwidth to/from this memory (bytes/s)
system.mem_ctrls.bw_total::total           1677935577                       # Total bandwidth to/from this memory (bytes/s)
system.mem_ctrls.readReqs                       19770                       # Number of read requests accepted
system.mem_ctrls.writeReqs                       9120                       # Number of write requests accepted
system.mem_ctrls.readBursts                     19770                       # Number of DRAM read bursts, including those serviced by the write queue
system.mem_ctrls.writeBursts                     9120                       # Number of DRAM write bursts, including those merged in the write queue
system.mem_ctrls.bytesReadDRAM                1264320                       # Total number of bytes read from DRAM
system.mem_ctrls.bytesReadWrQ                     960                       # Total number of bytes read from write queue
system.mem_ctrls.bytesWritten                  582272                       # Total number of bytes written to DRAM
system.mem_ctrls.bytesReadSys                 1265280                       # Total read bytes from the system interface side
system.mem_ctrls.bytesWrittenSys               583680                       # Total written bytes from the system interface side
system.mem_ctrls.servicedByWrQ                     15                       # Number of DRAM read bursts serviced by the write queue
system.mem_ctrls.mergedWrBursts                     0                       # Number of DRAM write bursts merged with an existing one
system.mem_ctrls.neitherReadNorWriteReqs            0                       # Number of requests that are neither read nor write
system.mem_ctrls.perBankRdBursts::0              1328                       # Per bank write bursts
system.mem_ctrls.perBankRdBursts::1              1004                       # Per bank write bursts
system.mem_ctrls.perBankRdBursts::2              1388                       # Per bank write bursts
system.mem_ctrls.perBankRdBursts::3              1271                       # Per bank write bursts
system.mem_ctrls.perBankRdBursts::4              1275                       # Per bank write bursts
system.mem_ctrls.perBankRdBursts::5              1007                       # Per bank write bursts
system.mem_ctrls.perBankRdBursts::6              1411                       # Per bank write bursts
system.mem_ctrls.perBankRdBursts::7              1104                       # Per bank write bursts
system.mem_ctrls.perBankRdBursts::8              1187                       # Per bank write bursts
system.mem_ctrls.perBankRdBursts::9              1296                       # Per bank write bursts
system.mem_ctrls.perBankRdBursts::10             1175                       # Per bank write bursts
system.mem_ctrls.perBankRdBursts::11             1445                       # Per bank write bursts
system.mem_ctrls.perBankRdBursts::12             1067                       # Per bank write bursts
system.mem_ctrls.perBankRdBursts::13             1739                       # Per bank write bursts
system.mem_ctrls.perBankRdBursts::14             1150                       # Per bank write bursts
system.mem_ctrls.perBankRdBursts::15              908                       # Per bank write bursts
system.mem_ctrls.perBankWrBursts::0               542                       # Per bank write bursts
system.mem_ctrls.perBankWrBursts::1               570                       # Per bank write bursts
system.mem_ctrls.perBankWrBursts::2               879                       # Per bank write bursts
system.mem_ctrls.perBankWrBursts::3              1040                       # Per bank write bursts
system.mem_ctrls.perBankWrBursts::4               812                       # Per bank write bursts
system.mem_ctrls.perBankWrBursts::5               605                       # Per bank write bursts
system.mem_ctrls.perBankWrBursts::6               776                       # Per bank write bursts
system.mem_ctrls.perBankWrBursts::7               448                       # Per bank write bursts
system.mem_ctrls.perBankWrBursts::8               416                       # Per bank write bursts
system.mem_ctrls.perBankWrBursts::9               670                       # Per bank write bursts
system.mem_ctrls.perBankWrBursts::10              294                       # Per bank write bursts
system.mem_ctrls.perBankWrBursts::11              402                       # Per bank write bursts
system.mem_ctrls.perBankWrBursts::12              202                       # Per bank write bursts
system.mem_ctrls.perBankWrBursts::13              477                       # Per bank write bursts
system.mem_ctrls.perBankWrBursts::14              475                       # Per bank write bursts
system.mem_ctrls.perBankWrBursts::15              490                       # Per bank write bursts
system.mem_ctrls.numRdRetry                         0                       # Number of times read queue was full causing retry
system.mem_ctrls.numWrRetry                         0                       # Number of times write queue was full causing retry
system.mem_ctrls.totGap                    1101885500                       # Total gap between requests
system.mem_ctrls.readPktSize::0                     0                       # Read request sizes (log2)
system.mem_ctrls.readPktSize::1                     0                       # Read request sizes (log2)
system.mem_ctrls.readPktSize::2                     0                       # Read request sizes (log2)
system.mem_ctrls.readPktSize::3                     0                       # Read request sizes (log2)
system.mem_ctrls.readPktSize::4                     0                       # Read request sizes (log2)
system.mem_ctrls.readPktSize::5                     0                       # Read request sizes (log2)
system.mem_ctrls.readPktSize::6                 19770                       # Read request sizes (log2)
system.mem_ctrls.writePktSize::0                    0                       # Write request sizes (log2)
system.mem_ctrls.writePktSize::1                    0                       # Write request sizes (log2)
system.mem_ctrls.writePktSize::2                    0                       # Write request sizes (log2)
system.mem_ctrls.writePktSize::3                    0                       # Write request sizes (log2)
system.mem_ctrls.writePktSize::4                    0                       # Write request sizes (log2)
system.mem_ctrls.writePktSize::5                    0                       # Write request sizes (log2)
system.mem_ctrls.writePktSize::6                 9120                       # Write request sizes (log2)
system.mem_ctrls.rdQLenPdf::0                    9580                       # What read queue length does an incoming req see
system.mem_ctrls.rdQLenPdf::1                    5337                       # What read queue length does an incoming req see
system.mem_ctrls.rdQLenPdf::2                    3071                       # What read queue length does an incoming req see
system.mem_ctrls.rdQLenPdf::3                    1737                       # What read queue length does an incoming req see
system.mem_ctrls.rdQLenPdf::4                      26                       # What read queue length does an incoming req see
system.mem_ctrls.rdQLenPdf::5                       3                       # What read queue length does an incoming req see
system.mem_ctrls.rdQLenPdf::6                       1                       # What read queue length does an incoming req see
system.mem_ctrls.rdQLenPdf::7                       0                       # What read queue length does an incoming req see
system.mem_ctrls.rdQLenPdf::8                       0                       # What read queue length does an incoming req see
system.mem_ctrls.rdQLenPdf::9                       0                       # What read queue length does an incoming req see
system.mem_ctrls.rdQLenPdf::10                      0                       # What read queue length does an incoming req see
system.mem_ctrls.rdQLenPdf::11                      0                       # What read queue length does an incoming req see
system.mem_ctrls.rdQLenPdf::12                      0                       # What read queue length does an incoming req see
system.mem_ctrls.rdQLenPdf::13                      0                       # What read queue length does an incoming req see
system.mem_ctrls.rdQLenPdf::14                      0                       # What read queue length does an incoming req see
system.mem_ctrls.rdQLenPdf::15                      0                       # What read queue length does an incoming req see
system.mem_ctrls.rdQLenPdf::16                      0                       # What read queue length does an incoming req see
system.mem_ctrls.rdQLenPdf::17                      0                       # What read queue length does an incoming req see
system.mem_ctrls.rdQLenPdf::18                      0                       # What read queue length does an incoming req see
system.mem_ctrls.rdQLenPdf::19                      0                       # What read queue length does an incoming req see
system.mem_ctrls.rdQLenPdf::20                      0                       # What read queue length does an incoming req see
system.mem_ctrls.rdQLenPdf::21                      0                       # What read queue length does an incoming req see
system.mem_ctrls.rdQLenPdf::22                      0                       # What read queue length does an incoming req see
system.mem_ctrls.rdQLenPdf::23                      0                       # What read queue length does an incoming req see
system.mem_ctrls.rdQLenPdf::24                      0                       # What read queue length does an incoming req see
system.mem_ctrls.rdQLenPdf::25                      0                       # What read queue length does an incoming req see
system.mem_ctrls.rdQLenPdf::26                      0                       # What read queue length does an incoming req see
system.mem_ctrls.rdQLenPdf::27                      0                       # What read queue length does an incoming req see
system.mem_ctrls.rdQLenPdf::28                      0                       # What read queue length does an incoming req see
system.mem_ctrls.rdQLenPdf::29                      0                       # What read queue length does an incoming req see
system.mem_ctrls.rdQLenPdf::30                      0                       # What read queue length does an incoming req see
system.mem_ctrls.rdQLenPdf::31                      0                       # What read queue length does an incoming req see
system.mem_ctrls.wrQLenPdf::0                       1                       # What write queue length does an incoming req see
system.mem_ctrls.wrQLenPdf::1                       1                       # What write queue length does an incoming req see
system.mem_ctrls.wrQLenPdf::2                       1                       # What write queue length does an incoming req see
system.mem_ctrls.wrQLenPdf::3                       1                       # What write queue length does an incoming req see
system.mem_ctrls.wrQLenPdf::4                       1                       # What write queue length does an incoming req see
system.mem_ctrls.wrQLenPdf::5                       1                       # What write queue length does an incoming req see
system.mem_ctrls.wrQLenPdf::6                       1                       # What write queue length does an incoming req see
system.mem_ctrls.wrQLenPdf::7                       1                       # What write queue length does an incoming req see
system.mem_ctrls.wrQLenPdf::8                       1                       # What write queue length does an incoming req see
system.mem_ctrls.wrQLenPdf::9                       1                       # What write queue length does an incoming req see
system.mem_ctrls.wrQLenPdf::10                      1                       # What write queue length does an incoming req see
system.mem_ctrls.wrQLenPdf::11                      1                       # What write queue length does an incoming req see
system.mem_ctrls.wrQLenPdf::12                      1                       # What write queue length does an incoming req see
system.mem_ctrls.wrQLenPdf::13                      1                       # What write queue length does an incoming req see
system.mem_ctrls.wrQLenPdf::14                      1                       # What write queue length does an incoming req see
system.mem_ctrls.wrQLenPdf::15                     50                       # What write queue length does an incoming req see
system.mem_ctrls.wrQLenPdf::16                     53                       # What write queue length does an incoming req see
system.mem_ctrls.wrQLenPdf::17                    299                       # What write queue length does an incoming req see
system.mem_ctrls.wrQLenPdf::18                    447                       # What write queue length does an incoming req see
system.mem_ctrls.wrQLenPdf::19                    543                       # What write queue length does an incoming req see
system.mem_ctrls.wrQLenPdf::20                    569                       # What write queue length does an incoming req see
system.mem_ctrls.wrQLenPdf::21                    575                       # What write queue length does an incoming req see
system.mem_ctrls.wrQLenPdf::22                    587                       # What write queue length does an incoming req see
system.mem_ctrls.wrQLenPdf::23                    596                       # What write queue length does an incoming req see
system.mem_ctrls.wrQLenPdf::24                    584                       # What write queue length does an incoming req see
system.mem_ctrls.wrQLenPdf::25                    596                       # What write queue length does an incoming req see
system.mem_ctrls.wrQLenPdf::26                    649                       # What write queue length does an incoming req see
system.mem_ctrls.wrQLenPdf::27                    599                       # What write queue length does an incoming req see
system.mem_ctrls.wrQLenPdf::28                    603                       # What write queue length does an incoming req see
system.mem_ctrls.wrQLenPdf::29                    638                       # What write queue length does an incoming req see
system.mem_ctrls.wrQLenPdf::30                    573                       # What write queue length does an incoming req see
system.mem_ctrls.wrQLenPdf::31                    582                       # What write queue length does an incoming req see
system.mem_ctrls.wrQLenPdf::32                    560                       # What write queue length does an incoming req see
system.mem_ctrls.wrQLenPdf::33                      1                       # What write queue length does an incoming req see
system.mem_ctrls.wrQLenPdf::34                      1                       # What write queue length does an incoming req see
system.mem_ctrls.wrQLenPdf::35                      0                       # What write queue length does an incoming req see
system.mem_ctrls.wrQLenPdf::36                      0                       # What write queue length does an incoming req see
system.mem_ctrls.wrQLenPdf::37                      0                       # What write queue length does an incoming req see
system.mem_ctrls.wrQLenPdf::38                      0                       # What write queue length does an incoming req see
system.mem_ctrls.wrQLenPdf::39                      0                       # What write queue length does an incoming req see
system.mem_ctrls.wrQLenPdf::40                      0                       # What write queue length does an incoming req see
system.mem_ctrls.wrQLenPdf::41                      0                       # What write queue length does an incoming req see
system.mem_ctrls.wrQLenPdf::42                      0                       # What write queue length does an incoming req see
system.mem_ctrls.wrQLenPdf::43                      0                       # What write queue length does an incoming req see
system.mem_ctrls.wrQLenPdf::44                      0                       # What write queue length does an incoming req see
system.mem_ctrls.wrQLenPdf::45                      0                       # What write queue length does an incoming req see
system.mem_ctrls.wrQLenPdf::46                      0                       # What write queue length does an incoming req see
system.mem_ctrls.wrQLenPdf::47                      0                       # What write queue length does an incoming req see
system.mem_ctrls.wrQLenPdf::48                      0                       # What write queue length does an incoming req see
system.mem_ctrls.wrQLenPdf::49                      0                       # What write queue length does an incoming req see
system.mem_ctrls.wrQLenPdf::50                      0                       # What write queue length does an incoming req see
system.mem_ctrls.wrQLenPdf::51                      0                       # What write queue length does an incoming req see
system.mem_ctrls.wrQLenPdf::52                      0                       # What write queue length does an incoming req see
system.mem_ctrls.wrQLenPdf::53                      0                       # What write queue length does an incoming req see
system.mem_ctrls.wrQLenPdf::54                      0                       # What write queue length does an incoming req see
system.mem_ctrls.wrQLenPdf::55                      0                       # What write queue length does an incoming req see
system.mem_ctrls.wrQLenPdf::56                      0                       # What write queue length does an incoming req see
system.mem_ctrls.wrQLenPdf::57                      0                       # What write queue length does an incoming req see
system.mem_ctrls.wrQLenPdf::58                      0                       # What write queue length does an incoming req see
system.mem_ctrls.wrQLenPdf::59                      0                       # What write queue length does an incoming req see
system.mem_ctrls.wrQLenPdf::60                      0                       # What write queue length does an incoming req see
system.mem_ctrls.wrQLenPdf::61                      0                       # What write queue length does an incoming req see
system.mem_ctrls.wrQLenPdf::62                      0                       # What write queue length does an incoming req see
system.mem_ctrls.wrQLenPdf::63                      0                       # What write queue length does an incoming req see
system.mem_ctrls.bytesPerActivate::samples         6750                       # Bytes accessed per row activation
system.mem_ctrls.bytesPerActivate::mean    273.170963                       # Bytes accessed per row activation
system.mem_ctrls.bytesPerActivate::gmean   165.142241                       # Bytes accessed per row activation
system.mem_ctrls.bytesPerActivate::stdev   302.040010                       # Bytes accessed per row activation
system.mem_ctrls.bytesPerActivate::0-127         2633     39.01%     39.01% # Bytes accessed per row activation
system.mem_ctrls.bytesPerActivate::128-255         1793     26.56%     65.57% # Bytes accessed per row activation
system.mem_ctrls.bytesPerActivate::256-383          732     10.84%     76.41% # Bytes accessed per row activation
system.mem_ctrls.bytesPerActivate::384-511          359      5.32%     81.73% # Bytes accessed per row activation
system.mem_ctrls.bytesPerActivate::512-639          247      3.66%     85.39% # Bytes accessed per row activation
system.mem_ctrls.bytesPerActivate::640-767          148      2.19%     87.59% # Bytes accessed per row activation
system.mem_ctrls.bytesPerActivate::768-895          133      1.97%     89.56% # Bytes accessed per row activation
system.mem_ctrls.bytesPerActivate::896-1023           80      1.19%     90.74% # Bytes accessed per row activation
system.mem_ctrls.bytesPerActivate::1024-1151          625      9.26%    100.00% # Bytes accessed per row activation
system.mem_ctrls.bytesPerActivate::total         6750                       # Bytes accessed per row activation
system.mem_ctrls.rdPerTurnAround::samples          560                       # Reads before turning the bus around for writes
system.mem_ctrls.rdPerTurnAround::mean      35.264286                       # Reads before turning the bus around for writes
system.mem_ctrls.rdPerTurnAround::gmean     30.385857                       # Reads before turning the bus around for writes
system.mem_ctrls.rdPerTurnAround::stdev     22.961619                       # Reads before turning the bus around for writes
system.mem_ctrls.rdPerTurnAround::8-15             26      4.64%      4.64% # Reads before turning the bus around for writes
system.mem_ctrls.rdPerTurnAround::16-23           182     32.50%     37.14% # Reads before turning the bus around for writes
system.mem_ctrls.rdPerTurnAround::24-31            95     16.96%     54.11% # Reads before turning the bus around for writes
system.mem_ctrls.rdPerTurnAround::32-39            85     15.18%     69.29% # Reads before turning the bus around for writes
system.mem_ctrls.rdPerTurnAround::40-47            71     12.68%     81.96% # Reads before turning the bus around for writes
system.mem_ctrls.rdPerTurnAround::48-55            28      5.00%     86.96% # Reads before turning the bus around for writes
system.mem_ctrls.rdPerTurnAround::56-63            23      4.11%     91.07% # Reads before turning the bus around for writes
system.mem_ctrls.rdPerTurnAround::64-71            11      1.96%     93.04% # Reads before turning the bus around for writes
system.mem_ctrls.rdPerTurnAround::72-79            10      1.79%     94.82% # Reads before turning the bus around for writes
system.mem_ctrls.rdPerTurnAround::80-87             9      1.61%     96.43% # Reads before turning the bus around for writes
system.mem_ctrls.rdPerTurnAround::88-95             5      0.89%     97.32% # Reads before turning the bus around for writes
system.mem_ctrls.rdPerTurnAround::96-103            6      1.07%     98.39% # Reads before turning the bus around for writes
system.mem_ctrls.rdPerTurnAround::104-111            1      0.18%     98.57% # Reads before turning the bus around for writes
system.mem_ctrls.rdPerTurnAround::120-127            2      0.36%     98.93% # Reads before turning the bus around for writes
system.mem_ctrls.rdPerTurnAround::128-135            1      0.18%     99.11% # Reads before turning the bus around for writes
system.mem_ctrls.rdPerTurnAround::136-143            1      0.18%     99.29% # Reads before turning the bus around for writes
system.mem_ctrls.rdPerTurnAround::144-151            2      0.36%     99.64% # Reads before turning the bus around for writes
system.mem_ctrls.rdPerTurnAround::152-159            1      0.18%     99.82% # Reads before turning the bus around for writes
system.mem_ctrls.rdPerTurnAround::224-231            1      0.18%    100.00% # Reads before turning the bus around for writes
system.mem_ctrls.rdPerTurnAround::total           560                       # Reads before turning the bus around for writes
system.mem_ctrls.wrPerTurnAround::samples          560                       # Writes before turning the bus around for reads
system.mem_ctrls.wrPerTurnAround::mean      16.246429                       # Writes before turning the bus around for reads
system.mem_ctrls.wrPerTurnAround::gmean     16.232078                       # Writes before turning the bus around for reads
system.mem_ctrls.wrPerTurnAround::stdev      0.710253                       # Writes before turning the bus around for reads
system.mem_ctrls.wrPerTurnAround::16              494     88.21%     88.21% # Writes before turning the bus around for reads
system.mem_ctrls.wrPerTurnAround::17               10      1.79%     90.00% # Writes before turning the bus around for reads
system.mem_ctrls.wrPerTurnAround::18               41      7.32%     97.32% # Writes before turning the bus around for reads
system.mem_ctrls.wrPerTurnAround::19               14      2.50%     99.82% # Writes before turning the bus around for reads
system.mem_ctrls.wrPerTurnAround::20                1      0.18%    100.00% # Writes before turning the bus around for reads
system.mem_ctrls.wrPerTurnAround::total           560                       # Writes before turning the bus around for reads
system.mem_ctrls.totQLat                    331049250                       # Total ticks spent queuing
system.mem_ctrls.totMemAccLat               701455500                       # Total ticks spent from burst creation until serviced by the DRAM
system.mem_ctrls.totBusLat                   98775000                       # Total ticks spent in databus transfers
system.mem_ctrls.avgQLat                     16757.74                       # Average queueing delay per DRAM burst
system.mem_ctrls.avgBusLat                    5000.00                       # Average bus latency per DRAM burst
system.mem_ctrls.avgMemAccLat                35507.74                       # Average memory access latency per DRAM burst
system.mem_ctrls.avgRdBW                      1147.37                       # Average DRAM read bandwidth in MiByte/s
system.mem_ctrls.avgWrBW                       528.41                       # Average achieved write bandwidth in MiByte/s
system.mem_ctrls.avgRdBWSys                   1148.24                       # Average system read bandwidth in MiByte/s
system.mem_ctrls.avgWrBWSys                    529.69                       # Average system write bandwidth in MiByte/s
system.mem_ctrls.peakBW                      12800.00                       # Theoretical peak bandwidth in MiByte/s
system.mem_ctrls.busUtil                        13.09                       # Data bus utilization in percentage
system.mem_ctrls.busUtilRead                     8.96                       # Data bus utilization in percentage for reads
system.mem_ctrls.busUtilWrite                    4.13                       # Data bus utilization in percentage for writes
system.mem_ctrls.avgRdQLen                       1.81                       # Average read queue length when enqueuing
system.mem_ctrls.avgWrQLen                      25.64                       # Average write queue length when enqueuing
system.mem_ctrls.readRowHits                    15608                       # Number of row buffer hits during reads
system.mem_ctrls.writeRowHits                    6479                       # Number of row buffer hits during writes
system.mem_ctrls.readRowHitRate                 79.01                       # Row buffer hit rate for reads
system.mem_ctrls.writeRowHitRate                71.04                       # Row buffer hit rate for writes
system.mem_ctrls.avgGap                      38140.72                       # Average gap between requests
system.mem_ctrls.pageHitRate                    76.49                       # Row buffer hit rate, read and write combined
system.mem_ctrls_0.actEnergy                 26112240                       # Energy for activate commands per rank (pJ)
system.mem_ctrls_0.preEnergy                 14247750                       # Energy for precharge commands per rank (pJ)
system.mem_ctrls_0.readEnergy                76143600                       # Energy for read commands per rank (pJ)
system.mem_ctrls_0.writeEnergy               36573120                       # Energy for write commands per rank (pJ)
system.mem_ctrls_0.refreshEnergy             71706960                       # Energy for refresh commands per rank (pJ)
system.mem_ctrls_0.actBackEnergy            712133775                       # Energy for active background per rank (pJ)
system.mem_ctrls_0.preBackEnergy             34194000                       # Energy for precharge background per rank (pJ)
system.mem_ctrls_0.totalEnergy              971111445                       # Total energy per rank (pJ)
system.mem_ctrls_0.averagePower            884.338997                       # Core power per rank (mW)
system.mem_ctrls_0.memoryStateTime::IDLE     52110000                       # Time in different power states
system.mem_ctrls_0.memoryStateTime::REF      36660000                       # Time in different power states
system.mem_ctrls_0.memoryStateTime::PRE_PDN            0                       # Time in different power states
system.mem_ctrls_0.memoryStateTime::ACT    1009365000                       # Time in different power states
system.mem_ctrls_0.memoryStateTime::ACT_PDN            0                       # Time in different power states
system.mem_ctrls_1.actEnergy                 24706080                       # Energy for activate commands per rank (pJ)
system.mem_ctrls_1.preEnergy                 13480500                       # Energy for precharge commands per rank (pJ)
system.mem_ctrls_1.readEnergy                77461800                       # Energy for read commands per rank (pJ)
system.mem_ctrls_1.writeEnergy               22051440                       # Energy for write commands per rank (pJ)
system.mem_ctrls_1.refreshEnergy             71706960                       # Energy for refresh commands per rank (pJ)
system.mem_ctrls_1.actBackEnergy            722210805                       # Energy for active background per rank (pJ)
system.mem_ctrls_1.preBackEnergy             25354500                       # Energy for precharge background per rank (pJ)
system.mem_ctrls_1.totalEnergy              956972085                       # Total energy per rank (pJ)
system.mem_ctrls_1.averagePower            871.463042                       # Core power per rank (mW)
system.mem_ctrls_1.memoryStateTime::IDLE     37401750                       # Time in different power states
system.mem_ctrls_1.memoryStateTime::REF      36660000                       # Time in different power states
system.mem_ctrls_1.memoryStateTime::PRE_PDN            0                       # Time in different power states
system.mem_ctrls_1.memoryStateTime::ACT    1024157750                       # Time in different power states
system.mem_ctrls_1.memoryStateTime::ACT_PDN            0                       # Time in different power states
system.cpu_voltage_domain.voltage                   1                       # Voltage in Volts
system.cpu_clk_domain.clock                       500                       # Clock period in ticks
system.cpu.dtb.fetch_hits                           0                       # ITB hits
system.cpu.dtb.fetch_misses                         0                       # ITB misses
system.cpu.dtb.fetch_acv                            0                       # ITB acv
system.cpu.dtb.fetch_accesses                       0                       # ITB accesses
system.cpu.dtb.read_hits                            0                       # DTB read hits
system.cpu.dtb.read_misses                          0                       # DTB read misses
system.cpu.dtb.read_acv                             0                       # DTB read access violations
system.cpu.dtb.read_accesses                        0                       # DTB read accesses
system.cpu.dtb.write_hits                           0                       # DTB write hits
system.cpu.dtb.write_misses                         0                       # DTB write misses
system.cpu.dtb.write_acv                            0                       # DTB write access violations
system.cpu.dtb.write_accesses                       0                       # DTB write accesses
system.cpu.dtb.data_hits                            0                       # DTB hits
system.cpu.dtb.data_misses                          0                       # DTB misses
system.cpu.dtb.data_acv                             0                       # DTB access violations
system.cpu.dtb.data_accesses                        0                       # DTB accesses
system.cpu.itb.fetch_hits                           0                       # ITB hits
system.cpu.itb.fetch_misses                         0                       # ITB misses
system.cpu.itb.fetch_acv                            0                       # ITB acv
system.cpu.itb.fetch_accesses                       0                       # ITB accesses
system.cpu.itb.read_hits                            0                       # DTB read hits
system.cpu.itb.read_misses                          0                       # DTB read misses
system.cpu.itb.read_acv                             0                       # DTB read access violations
system.cpu.itb.read_accesses                        0                       # DTB read accesses
system.cpu.itb.write_hits                           0                       # DTB write hits
system.cpu.itb.write_misses                         0                       # DTB write misses
system.cpu.itb.write_acv                            0                       # DTB write access violations
system.cpu.itb.write_accesses                       0                       # DTB write accesses
system.cpu.itb.data_hits                            0                       # DTB hits
system.cpu.itb.data_misses                          0                       # DTB misses
system.cpu.itb.data_acv                             0                       # DTB access violations
system.cpu.itb.data_accesses                        0                       # DTB accesses
system.cpu.numCycles                                0                       # number of cpu cycles simulated
system.cpu.numWorkItemsStarted                      0                       # number of work items this cpu started
system.cpu.numWorkItemsCompleted                    0                       # number of work items this cpu completed
system.cpu.committedInsts                           0                       # Number of instructions committed
system.cpu.committedOps                             0                       # Number of ops (including micro ops) committed
system.cpu.num_int_alu_accesses                     0                       # Number of integer alu accesses
system.cpu.num_fp_alu_accesses                      0                       # Number of float alu accesses
system.cpu.num_func_calls                           0                       # number of times a function call or return occured
system.cpu.num_conditional_control_insts            0                       # number of instructions that are conditional controls
system.cpu.num_int_insts                            0                       # number of integer instructions
system.cpu.num_fp_insts                             0                       # number of float instructions
system.cpu.num_int_register_reads                   0                       # number of times the integer registers were read
system.cpu.num_int_register_writes                  0                       # number of times the integer registers were written
system.cpu.num_fp_register_reads                    0                       # number of times the floating registers were read
system.cpu.num_fp_register_writes                   0                       # number of times the floating registers were written
system.cpu.num_mem_refs                             0                       # number of memory refs
system.cpu.num_load_insts                           0                       # Number of load instructions
system.cpu.num_store_insts                          0                       # Number of store instructions
system.cpu.num_idle_cycles                          0                       # Number of idle cycles
system.cpu.num_busy_cycles                          0                       # Number of busy cycles
system.cpu.not_idle_fraction                        1                       # Percentage of non-idle cycles
system.cpu.idle_fraction                            0                       # Percentage of idle cycles
system.cpu.op_class::No_OpClass                     0                       # Class of executed instruction
system.cpu.op_class::IntAlu                         0                       # Class of executed instruction
system.cpu.op_class::IntMult                        0                       # Class of executed instruction
system.cpu.op_class::IntDiv                         0                       # Class of executed instruction
system.cpu.op_class::FloatAdd                       0                       # Class of executed instruction
system.cpu.op_class::FloatCmp                       0                       # Class of executed instruction
system.cpu.op_class::FloatCvt                       0                       # Class of executed instruction
system.cpu.op_class::FloatMult                      0                       # Class of executed instruction
system.cpu.op_class::FloatDiv                       0                       # Class of executed instruction
system.cpu.op_class::FloatSqrt                      0                       # Class of executed instruction
system.cpu.op_class::SimdAdd                        0                       # Class of executed instruction
system.cpu.op_class::SimdAddAcc                     0                       # Class of executed instruction
system.cpu.op_class::SimdAlu                        0                       # Class of executed instruction
system.cpu.op_class::SimdCmp                        0                       # Class of executed instruction
system.cpu.op_class::SimdCvt                        0                       # Class of executed instruction
system.cpu.op_class::SimdMisc                       0                       # Class of executed instruction
system.cpu.op_class::SimdMult                       0                       # Class of executed instruction
system.cpu.op_class::SimdMultAcc                    0                       # Class of executed instruction
system.cpu.op_class::SimdShift                      0                       # Class of executed instruction
system.cpu.op_class::SimdShiftAcc                   0                       # Class of executed instruction
system.cpu.op_class::SimdSqrt                       0                       # Class of executed instruction
system.cpu.op_class::SimdFloatAdd                   0                       # Class of executed instruction
system.cpu.op_class::SimdFloatAlu                   0                       # Class of executed instruction
system.cpu.op_class::SimdFloatCmp                   0                       # Class of executed instruction
system.cpu.op_class::SimdFloatCvt                   0                       # Class of executed instruction
system.cpu.op_class::SimdFloatDiv                   0                       # Class of executed instruction
system.cpu.op_class::SimdFloatMisc                  0                       # Class of executed instruction
system.cpu.op_class::SimdFloatMult                  0                       # Class of executed instruction
system.cpu.op_class::SimdFloatMultAcc               0                       # Class of executed instruction
system.cpu.op_class::SimdFloatSqrt                  0                       # Class of executed instruction
system.cpu.op_class::MemRead                        0                       # Class of executed instruction
system.cpu.op_class::MemWrite                       0                       # Class of executed instruction
system.cpu.op_class::IprAccess                      0                       # Class of executed instruction
system.cpu.op_class::InstPrefetch                   0                       # Class of executed instruction
system.cpu.op_class::total                          0                       # Class of executed instruction
system.cpu.kern.inst.arm                            0                       # number of arm instructions executed
system.cpu.kern.inst.quiesce                        0                       # number of quiesce instructions executed
system.cpu.kern.inst.hwrei                       2781                       # number of hwrei instructions executed
system.cpu.kern.ipl_count::0                      635     49.15%     49.15% # number of times we switched to this ipl
system.cpu.kern.ipl_count::22                       1      0.08%     49.23% # number of times we switched to this ipl
system.cpu.kern.ipl_count::31                     656     50.77%    100.00% # number of times we switched to this ipl
system.cpu.kern.ipl_count::total                 1292                       # number of times we switched to this ipl
system.cpu.kern.ipl_good::0                       633     49.96%     49.96% # number of times we switched to this ipl from a different ipl
system.cpu.kern.ipl_good::22                        1      0.08%     50.04% # number of times we switched to this ipl from a different ipl
system.cpu.kern.ipl_good::31                      633     49.96%    100.00% # number of times we switched to this ipl from a different ipl
system.cpu.kern.ipl_good::total                  1267                       # number of times we switched to this ipl from a different ipl
system.cpu.kern.ipl_ticks::0               1003836500     91.22%     91.22% # number of cycles we spent at this ipl
system.cpu.kern.ipl_ticks::22                 1379000      0.13%     91.35% # number of cycles we spent at this ipl
system.cpu.kern.ipl_ticks::31                95205000      8.65%    100.00% # number of cycles we spent at this ipl
system.cpu.kern.ipl_ticks::total           1100420500                       # number of cycles we spent at this ipl
system.cpu.kern.ipl_used::0                  0.996850                       # fraction of swpipl calls that actually changed the ipl
system.cpu.kern.ipl_used::22                        1                       # fraction of swpipl calls that actually changed the ipl
system.cpu.kern.ipl_used::31                 0.964939                       # fraction of swpipl calls that actually changed the ipl
system.cpu.kern.ipl_used::total              0.980650                       # fraction of swpipl calls that actually changed the ipl
system.cpu.kern.syscall::2                          1      5.56%      5.56% # number of syscalls executed
system.cpu.kern.syscall::3                          2     11.11%     16.67% # number of syscalls executed
system.cpu.kern.syscall::6                          2     11.11%     27.78% # number of syscalls executed
system.cpu.kern.syscall::17                         1      5.56%     33.33% # number of syscalls executed
system.cpu.kern.syscall::19                         1      5.56%     38.89% # number of syscalls executed
system.cpu.kern.syscall::33                         1      5.56%     44.44% # number of syscalls executed
system.cpu.kern.syscall::45                         3     16.67%     61.11% # number of syscalls executed
system.cpu.kern.syscall::48                         1      5.56%     66.67% # number of syscalls executed
system.cpu.kern.syscall::59                         1      5.56%     72.22% # number of syscalls executed
system.cpu.kern.syscall::71                         4     22.22%     94.44% # number of syscalls executed
system.cpu.kern.syscall::74                         1      5.56%    100.00% # number of syscalls executed
system.cpu.kern.syscall::total                     18                       # number of syscalls executed
system.cpu.kern.callpal::swpctx                   118      8.10%      8.10% # number of callpals executed
system.cpu.kern.callpal::tbi                        6      0.41%      8.51% # number of callpals executed
system.cpu.kern.callpal::swpipl                  1107     75.98%     84.49% # number of callpals executed
system.cpu.kern.callpal::rdps                       3      0.21%     84.69% # number of callpals executed
system.cpu.kern.callpal::wrusp                      1      0.07%     84.76% # number of callpals executed
system.cpu.kern.callpal::rdusp                      1      0.07%     84.83% # number of callpals executed
system.cpu.kern.callpal::rti                      184     12.63%     97.46% # number of callpals executed
system.cpu.kern.callpal::callsys                   33      2.26%     99.73% # number of callpals executed
system.cpu.kern.callpal::imb                        4      0.27%    100.00% # number of callpals executed
system.cpu.kern.callpal::total                   1457                       # number of callpals executed
system.cpu.kern.mode_switch::kernel               302                       # number of protection mode switches
system.cpu.kern.mode_switch::user                 181                       # number of protection mode switches
system.cpu.kern.mode_switch::idle                   0                       # number of protection mode switches
system.cpu.kern.mode_good::kernel                 181                      
system.cpu.kern.mode_good::user                   181                      
system.cpu.kern.mode_good::idle                     0                      
system.cpu.kern.mode_switch_good::kernel     0.599338                       # fraction of useful protection mode switches
system.cpu.kern.mode_switch_good::user              1                       # fraction of useful protection mode switches
system.cpu.kern.mode_switch_good::idle            nan                       # fraction of useful protection mode switches
system.cpu.kern.mode_switch_good::total      0.749482                       # fraction of useful protection mode switches
system.cpu.kern.mode_ticks::kernel          776042000     70.52%     70.52% # number of ticks spent at the given mode
system.cpu.kern.mode_ticks::user            324371500     29.48%    100.00% # number of ticks spent at the given mode
system.cpu.kern.mode_ticks::idle                    0      0.00%    100.00% # number of ticks spent at the given mode
system.cpu.kern.swap_context                      118                       # number of times the context was actually changed
system.cpu.dcache.tags.replacements             22745                       # number of replacements
system.cpu.dcache.tags.tagsinuse                  256                       # Cycle average of tags in use
system.cpu.dcache.tags.total_refs              195221                       # Total number of references to valid blocks.
system.cpu.dcache.tags.sampled_refs             22745                       # Sample count of references to valid blocks.
system.cpu.dcache.tags.avg_refs              8.583029                       # Average number of references to valid blocks.
system.cpu.dcache.tags.warmup_cycle                 0                       # Cycle when the warmup percentage was hit.
system.cpu.dcache.tags.occ_blocks::cpu.data     6.883047                       # Average occupied blocks per requestor
system.cpu.dcache.tags.occ_blocks::switch_cpus.data   249.116953                       # Average occupied blocks per requestor
system.cpu.dcache.tags.occ_percent::cpu.data     0.026887                       # Average percentage of cache occupancy
system.cpu.dcache.tags.occ_percent::switch_cpus.data     0.973113                       # Average percentage of cache occupancy
system.cpu.dcache.tags.occ_percent::total            1                       # Average percentage of cache occupancy
system.cpu.dcache.tags.occ_task_id_blocks::1024          256                       # Occupied blocks per task id
system.cpu.dcache.tags.age_task_id_blocks_1024::0           86                       # Occupied blocks per task id
system.cpu.dcache.tags.age_task_id_blocks_1024::1          149                       # Occupied blocks per task id
system.cpu.dcache.tags.age_task_id_blocks_1024::2           21                       # Occupied blocks per task id
system.cpu.dcache.tags.occ_task_id_percent::1024            1                       # Percentage of cache occupancy per task id
system.cpu.dcache.tags.tag_accesses           1220857                       # Number of tag accesses
system.cpu.dcache.tags.data_accesses          1220857                       # Number of data accesses
system.cpu.dcache.ReadReq_hits::switch_cpus.data       134409                       # number of ReadReq hits
system.cpu.dcache.ReadReq_hits::total          134409                       # number of ReadReq hits
system.cpu.dcache.WriteReq_hits::switch_cpus.data        57112                       # number of WriteReq hits
system.cpu.dcache.WriteReq_hits::total          57112                       # number of WriteReq hits
system.cpu.dcache.LoadLockedReq_hits::switch_cpus.data         2098                       # number of LoadLockedReq hits
system.cpu.dcache.LoadLockedReq_hits::total         2098                       # number of LoadLockedReq hits
system.cpu.dcache.StoreCondReq_hits::switch_cpus.data         2378                       # number of StoreCondReq hits
system.cpu.dcache.StoreCondReq_hits::total         2378                       # number of StoreCondReq hits
system.cpu.dcache.demand_hits::switch_cpus.data       191521                       # number of demand (read+write) hits
system.cpu.dcache.demand_hits::total           191521                       # number of demand (read+write) hits
system.cpu.dcache.overall_hits::switch_cpus.data       191521                       # number of overall hits
system.cpu.dcache.overall_hits::total          191521                       # number of overall hits
system.cpu.dcache.ReadReq_misses::switch_cpus.data        33821                       # number of ReadReq misses
system.cpu.dcache.ReadReq_misses::total         33821                       # number of ReadReq misses
system.cpu.dcache.WriteReq_misses::switch_cpus.data        69132                       # number of WriteReq misses
system.cpu.dcache.WriteReq_misses::total        69132                       # number of WriteReq misses
system.cpu.dcache.LoadLockedReq_misses::switch_cpus.data          578                       # number of LoadLockedReq misses
system.cpu.dcache.LoadLockedReq_misses::total          578                       # number of LoadLockedReq misses
system.cpu.dcache.demand_misses::switch_cpus.data       102953                       # number of demand (read+write) misses
system.cpu.dcache.demand_misses::total         102953                       # number of demand (read+write) misses
system.cpu.dcache.overall_misses::switch_cpus.data       102953                       # number of overall misses
system.cpu.dcache.overall_misses::total        102953                       # number of overall misses
system.cpu.dcache.ReadReq_miss_latency::switch_cpus.data   1682516499                       # number of ReadReq miss cycles
system.cpu.dcache.ReadReq_miss_latency::total   1682516499                       # number of ReadReq miss cycles
system.cpu.dcache.WriteReq_miss_latency::switch_cpus.data   4775979147                       # number of WriteReq miss cycles
system.cpu.dcache.WriteReq_miss_latency::total   4775979147                       # number of WriteReq miss cycles
system.cpu.dcache.LoadLockedReq_miss_latency::switch_cpus.data     25036750                       # number of LoadLockedReq miss cycles
system.cpu.dcache.LoadLockedReq_miss_latency::total     25036750                       # number of LoadLockedReq miss cycles
system.cpu.dcache.demand_miss_latency::switch_cpus.data   6458495646                       # number of demand (read+write) miss cycles
system.cpu.dcache.demand_miss_latency::total   6458495646                       # number of demand (read+write) miss cycles
system.cpu.dcache.overall_miss_latency::switch_cpus.data   6458495646                       # number of overall miss cycles
system.cpu.dcache.overall_miss_latency::total   6458495646                       # number of overall miss cycles
system.cpu.dcache.ReadReq_accesses::switch_cpus.data       168230                       # number of ReadReq accesses(hits+misses)
system.cpu.dcache.ReadReq_accesses::total       168230                       # number of ReadReq accesses(hits+misses)
system.cpu.dcache.WriteReq_accesses::switch_cpus.data       126244                       # number of WriteReq accesses(hits+misses)
system.cpu.dcache.WriteReq_accesses::total       126244                       # number of WriteReq accesses(hits+misses)
system.cpu.dcache.LoadLockedReq_accesses::switch_cpus.data         2676                       # number of LoadLockedReq accesses(hits+misses)
system.cpu.dcache.LoadLockedReq_accesses::total         2676                       # number of LoadLockedReq accesses(hits+misses)
system.cpu.dcache.StoreCondReq_accesses::switch_cpus.data         2378                       # number of StoreCondReq accesses(hits+misses)
system.cpu.dcache.StoreCondReq_accesses::total         2378                       # number of StoreCondReq accesses(hits+misses)
system.cpu.dcache.demand_accesses::switch_cpus.data       294474                       # number of demand (read+write) accesses
system.cpu.dcache.demand_accesses::total       294474                       # number of demand (read+write) accesses
system.cpu.dcache.overall_accesses::switch_cpus.data       294474                       # number of overall (read+write) accesses
system.cpu.dcache.overall_accesses::total       294474                       # number of overall (read+write) accesses
system.cpu.dcache.ReadReq_miss_rate::switch_cpus.data     0.201040                       # miss rate for ReadReq accesses
system.cpu.dcache.ReadReq_miss_rate::total     0.201040                       # miss rate for ReadReq accesses
system.cpu.dcache.WriteReq_miss_rate::switch_cpus.data     0.547606                       # miss rate for WriteReq accesses
system.cpu.dcache.WriteReq_miss_rate::total     0.547606                       # miss rate for WriteReq accesses
system.cpu.dcache.LoadLockedReq_miss_rate::switch_cpus.data     0.215994                       # miss rate for LoadLockedReq accesses
system.cpu.dcache.LoadLockedReq_miss_rate::total     0.215994                       # miss rate for LoadLockedReq accesses
system.cpu.dcache.demand_miss_rate::switch_cpus.data     0.349617                       # miss rate for demand accesses
system.cpu.dcache.demand_miss_rate::total     0.349617                       # miss rate for demand accesses
system.cpu.dcache.overall_miss_rate::switch_cpus.data     0.349617                       # miss rate for overall accesses
system.cpu.dcache.overall_miss_rate::total     0.349617                       # miss rate for overall accesses
system.cpu.dcache.ReadReq_avg_miss_latency::switch_cpus.data 49747.686319                       # average ReadReq miss latency
system.cpu.dcache.ReadReq_avg_miss_latency::total 49747.686319                       # average ReadReq miss latency
system.cpu.dcache.WriteReq_avg_miss_latency::switch_cpus.data 69084.926619                       # average WriteReq miss latency
system.cpu.dcache.WriteReq_avg_miss_latency::total 69084.926619                       # average WriteReq miss latency
system.cpu.dcache.LoadLockedReq_avg_miss_latency::switch_cpus.data 43316.176471                       # average LoadLockedReq miss latency
system.cpu.dcache.LoadLockedReq_avg_miss_latency::total 43316.176471                       # average LoadLockedReq miss latency
system.cpu.dcache.demand_avg_miss_latency::switch_cpus.data 62732.466718                       # average overall miss latency
system.cpu.dcache.demand_avg_miss_latency::total 62732.466718                       # average overall miss latency
system.cpu.dcache.overall_avg_miss_latency::switch_cpus.data 62732.466718                       # average overall miss latency
system.cpu.dcache.overall_avg_miss_latency::total 62732.466718                       # average overall miss latency
system.cpu.dcache.blocked_cycles::no_mshrs       393356                       # number of cycles access was blocked
system.cpu.dcache.blocked_cycles::no_targets            0                       # number of cycles access was blocked
system.cpu.dcache.blocked::no_mshrs              7765                       # number of cycles access was blocked
system.cpu.dcache.blocked::no_targets               0                       # number of cycles access was blocked
system.cpu.dcache.avg_blocked_cycles::no_mshrs    50.657566                       # average number of cycles each access was blocked
system.cpu.dcache.avg_blocked_cycles::no_targets          nan                       # average number of cycles each access was blocked
system.cpu.dcache.fast_writes                       0                       # number of fast writes performed
system.cpu.dcache.cache_copies                      0                       # number of cache copies performed
system.cpu.dcache.writebacks::writebacks        13998                       # number of writebacks
system.cpu.dcache.writebacks::total             13998                       # number of writebacks
system.cpu.dcache.ReadReq_mshr_hits::switch_cpus.data        20970                       # number of ReadReq MSHR hits
system.cpu.dcache.ReadReq_mshr_hits::total        20970                       # number of ReadReq MSHR hits
system.cpu.dcache.WriteReq_mshr_hits::switch_cpus.data        59620                       # number of WriteReq MSHR hits
system.cpu.dcache.WriteReq_mshr_hits::total        59620                       # number of WriteReq MSHR hits
system.cpu.dcache.LoadLockedReq_mshr_hits::switch_cpus.data          195                       # number of LoadLockedReq MSHR hits
system.cpu.dcache.LoadLockedReq_mshr_hits::total          195                       # number of LoadLockedReq MSHR hits
system.cpu.dcache.demand_mshr_hits::switch_cpus.data        80590                       # number of demand (read+write) MSHR hits
system.cpu.dcache.demand_mshr_hits::total        80590                       # number of demand (read+write) MSHR hits
system.cpu.dcache.overall_mshr_hits::switch_cpus.data        80590                       # number of overall MSHR hits
system.cpu.dcache.overall_mshr_hits::total        80590                       # number of overall MSHR hits
system.cpu.dcache.ReadReq_mshr_misses::switch_cpus.data        12851                       # number of ReadReq MSHR misses
system.cpu.dcache.ReadReq_mshr_misses::total        12851                       # number of ReadReq MSHR misses
system.cpu.dcache.WriteReq_mshr_misses::switch_cpus.data         9512                       # number of WriteReq MSHR misses
system.cpu.dcache.WriteReq_mshr_misses::total         9512                       # number of WriteReq MSHR misses
system.cpu.dcache.LoadLockedReq_mshr_misses::switch_cpus.data          383                       # number of LoadLockedReq MSHR misses
system.cpu.dcache.LoadLockedReq_mshr_misses::total          383                       # number of LoadLockedReq MSHR misses
system.cpu.dcache.demand_mshr_misses::switch_cpus.data        22363                       # number of demand (read+write) MSHR misses
system.cpu.dcache.demand_mshr_misses::total        22363                       # number of demand (read+write) MSHR misses
system.cpu.dcache.overall_mshr_misses::switch_cpus.data        22363                       # number of overall MSHR misses
system.cpu.dcache.overall_mshr_misses::total        22363                       # number of overall MSHR misses
system.cpu.dcache.WriteReq_mshr_uncacheable::switch_cpus.data            1                       # number of WriteReq MSHR uncacheable
system.cpu.dcache.WriteReq_mshr_uncacheable::total            1                       # number of WriteReq MSHR uncacheable
system.cpu.dcache.overall_mshr_uncacheable_misses::switch_cpus.data            1                       # number of overall MSHR uncacheable misses
system.cpu.dcache.overall_mshr_uncacheable_misses::total            1                       # number of overall MSHR uncacheable misses
system.cpu.dcache.ReadReq_mshr_miss_latency::switch_cpus.data    604123001                       # number of ReadReq MSHR miss cycles
system.cpu.dcache.ReadReq_mshr_miss_latency::total    604123001                       # number of ReadReq MSHR miss cycles
system.cpu.dcache.WriteReq_mshr_miss_latency::switch_cpus.data    743502740                       # number of WriteReq MSHR miss cycles
system.cpu.dcache.WriteReq_mshr_miss_latency::total    743502740                       # number of WriteReq MSHR miss cycles
system.cpu.dcache.LoadLockedReq_mshr_miss_latency::switch_cpus.data     13705500                       # number of LoadLockedReq MSHR miss cycles
system.cpu.dcache.LoadLockedReq_mshr_miss_latency::total     13705500                       # number of LoadLockedReq MSHR miss cycles
system.cpu.dcache.demand_mshr_miss_latency::switch_cpus.data   1347625741                       # number of demand (read+write) MSHR miss cycles
system.cpu.dcache.demand_mshr_miss_latency::total   1347625741                       # number of demand (read+write) MSHR miss cycles
system.cpu.dcache.overall_mshr_miss_latency::switch_cpus.data   1347625741                       # number of overall MSHR miss cycles
system.cpu.dcache.overall_mshr_miss_latency::total   1347625741                       # number of overall MSHR miss cycles
system.cpu.dcache.WriteReq_mshr_uncacheable_latency::switch_cpus.data       223500                       # number of WriteReq MSHR uncacheable cycles
system.cpu.dcache.WriteReq_mshr_uncacheable_latency::total       223500                       # number of WriteReq MSHR uncacheable cycles
system.cpu.dcache.overall_mshr_uncacheable_latency::switch_cpus.data       223500                       # number of overall MSHR uncacheable cycles
system.cpu.dcache.overall_mshr_uncacheable_latency::total       223500                       # number of overall MSHR uncacheable cycles
system.cpu.dcache.ReadReq_mshr_miss_rate::switch_cpus.data     0.076389                       # mshr miss rate for ReadReq accesses
system.cpu.dcache.ReadReq_mshr_miss_rate::total     0.076389                       # mshr miss rate for ReadReq accesses
system.cpu.dcache.WriteReq_mshr_miss_rate::switch_cpus.data     0.075346                       # mshr miss rate for WriteReq accesses
system.cpu.dcache.WriteReq_mshr_miss_rate::total     0.075346                       # mshr miss rate for WriteReq accesses
system.cpu.dcache.LoadLockedReq_mshr_miss_rate::switch_cpus.data     0.143124                       # mshr miss rate for LoadLockedReq accesses
system.cpu.dcache.LoadLockedReq_mshr_miss_rate::total     0.143124                       # mshr miss rate for LoadLockedReq accesses
system.cpu.dcache.demand_mshr_miss_rate::switch_cpus.data     0.075942                       # mshr miss rate for demand accesses
system.cpu.dcache.demand_mshr_miss_rate::total     0.075942                       # mshr miss rate for demand accesses
system.cpu.dcache.overall_mshr_miss_rate::switch_cpus.data     0.075942                       # mshr miss rate for overall accesses
system.cpu.dcache.overall_mshr_miss_rate::total     0.075942                       # mshr miss rate for overall accesses
system.cpu.dcache.ReadReq_avg_mshr_miss_latency::switch_cpus.data 47009.804762                       # average ReadReq mshr miss latency
system.cpu.dcache.ReadReq_avg_mshr_miss_latency::total 47009.804762                       # average ReadReq mshr miss latency
system.cpu.dcache.WriteReq_avg_mshr_miss_latency::switch_cpus.data 78164.711943                       # average WriteReq mshr miss latency
system.cpu.dcache.WriteReq_avg_mshr_miss_latency::total 78164.711943                       # average WriteReq mshr miss latency
system.cpu.dcache.LoadLockedReq_avg_mshr_miss_latency::switch_cpus.data 35784.595300                       # average LoadLockedReq mshr miss latency
system.cpu.dcache.LoadLockedReq_avg_mshr_miss_latency::total 35784.595300                       # average LoadLockedReq mshr miss latency
system.cpu.dcache.demand_avg_mshr_miss_latency::switch_cpus.data 60261.402361                       # average overall mshr miss latency
system.cpu.dcache.demand_avg_mshr_miss_latency::total 60261.402361                       # average overall mshr miss latency
system.cpu.dcache.overall_avg_mshr_miss_latency::switch_cpus.data 60261.402361                       # average overall mshr miss latency
system.cpu.dcache.overall_avg_mshr_miss_latency::total 60261.402361                       # average overall mshr miss latency
system.cpu.dcache.WriteReq_avg_mshr_uncacheable_latency::switch_cpus.data       223500                       # average WriteReq mshr uncacheable latency
system.cpu.dcache.WriteReq_avg_mshr_uncacheable_latency::total       223500                       # average WriteReq mshr uncacheable latency
system.cpu.dcache.overall_avg_mshr_uncacheable_latency::switch_cpus.data       223500                       # average overall mshr uncacheable latency
system.cpu.dcache.overall_avg_mshr_uncacheable_latency::total       223500                       # average overall mshr uncacheable latency
system.cpu.dcache.no_allocate_misses                0                       # Number of misses that were no-allocate
system.cpu.icache.tags.replacements             12273                       # number of replacements
system.cpu.icache.tags.tagsinuse           255.998867                       # Cycle average of tags in use
system.cpu.icache.tags.total_refs              259073                       # Total number of references to valid blocks.
system.cpu.icache.tags.sampled_refs             12273                       # Sample count of references to valid blocks.
system.cpu.icache.tags.avg_refs             21.109183                       # Average number of references to valid blocks.
system.cpu.icache.tags.warmup_cycle                 0                       # Cycle when the warmup percentage was hit.
system.cpu.icache.tags.occ_blocks::cpu.inst     4.655353                       # Average occupied blocks per requestor
system.cpu.icache.tags.occ_blocks::switch_cpus.inst   251.343514                       # Average occupied blocks per requestor
system.cpu.icache.tags.occ_percent::cpu.inst     0.018185                       # Average percentage of cache occupancy
system.cpu.icache.tags.occ_percent::switch_cpus.inst     0.981811                       # Average percentage of cache occupancy
system.cpu.icache.tags.occ_percent::total     0.999996                       # Average percentage of cache occupancy
system.cpu.icache.tags.occ_task_id_blocks::1024          256                       # Occupied blocks per task id
system.cpu.icache.tags.age_task_id_blocks_1024::0          103                       # Occupied blocks per task id
system.cpu.icache.tags.age_task_id_blocks_1024::1           23                       # Occupied blocks per task id
system.cpu.icache.tags.age_task_id_blocks_1024::2          130                       # Occupied blocks per task id
system.cpu.icache.tags.occ_task_id_percent::1024            1                       # Percentage of cache occupancy per task id
system.cpu.icache.tags.tag_accesses            693211                       # Number of tag accesses
system.cpu.icache.tags.data_accesses           693211                       # Number of data accesses
system.cpu.icache.ReadReq_hits::switch_cpus.inst       155524                       # number of ReadReq hits
system.cpu.icache.ReadReq_hits::total          155524                       # number of ReadReq hits
system.cpu.icache.demand_hits::switch_cpus.inst       155524                       # number of demand (read+write) hits
system.cpu.icache.demand_hits::total           155524                       # number of demand (read+write) hits
system.cpu.icache.overall_hits::switch_cpus.inst       155524                       # number of overall hits
system.cpu.icache.overall_hits::total          155524                       # number of overall hits
system.cpu.icache.ReadReq_misses::switch_cpus.inst        14710                       # number of ReadReq misses
system.cpu.icache.ReadReq_misses::total         14710                       # number of ReadReq misses
system.cpu.icache.demand_misses::switch_cpus.inst        14710                       # number of demand (read+write) misses
system.cpu.icache.demand_misses::total          14710                       # number of demand (read+write) misses
system.cpu.icache.overall_misses::switch_cpus.inst        14710                       # number of overall misses
system.cpu.icache.overall_misses::total         14710                       # number of overall misses
system.cpu.icache.ReadReq_miss_latency::switch_cpus.inst    679771454                       # number of ReadReq miss cycles
system.cpu.icache.ReadReq_miss_latency::total    679771454                       # number of ReadReq miss cycles
system.cpu.icache.demand_miss_latency::switch_cpus.inst    679771454                       # number of demand (read+write) miss cycles
system.cpu.icache.demand_miss_latency::total    679771454                       # number of demand (read+write) miss cycles
system.cpu.icache.overall_miss_latency::switch_cpus.inst    679771454                       # number of overall miss cycles
system.cpu.icache.overall_miss_latency::total    679771454                       # number of overall miss cycles
system.cpu.icache.ReadReq_accesses::switch_cpus.inst       170234                       # number of ReadReq accesses(hits+misses)
system.cpu.icache.ReadReq_accesses::total       170234                       # number of ReadReq accesses(hits+misses)
system.cpu.icache.demand_accesses::switch_cpus.inst       170234                       # number of demand (read+write) accesses
system.cpu.icache.demand_accesses::total       170234                       # number of demand (read+write) accesses
system.cpu.icache.overall_accesses::switch_cpus.inst       170234                       # number of overall (read+write) accesses
system.cpu.icache.overall_accesses::total       170234                       # number of overall (read+write) accesses
system.cpu.icache.ReadReq_miss_rate::switch_cpus.inst     0.086410                       # miss rate for ReadReq accesses
system.cpu.icache.ReadReq_miss_rate::total     0.086410                       # miss rate for ReadReq accesses
system.cpu.icache.demand_miss_rate::switch_cpus.inst     0.086410                       # miss rate for demand accesses
system.cpu.icache.demand_miss_rate::total     0.086410                       # miss rate for demand accesses
system.cpu.icache.overall_miss_rate::switch_cpus.inst     0.086410                       # miss rate for overall accesses
system.cpu.icache.overall_miss_rate::total     0.086410                       # miss rate for overall accesses
system.cpu.icache.ReadReq_avg_miss_latency::switch_cpus.inst 46211.519646                       # average ReadReq miss latency
system.cpu.icache.ReadReq_avg_miss_latency::total 46211.519646                       # average ReadReq miss latency
system.cpu.icache.demand_avg_miss_latency::switch_cpus.inst 46211.519646                       # average overall miss latency
system.cpu.icache.demand_avg_miss_latency::total 46211.519646                       # average overall miss latency
system.cpu.icache.overall_avg_miss_latency::switch_cpus.inst 46211.519646                       # average overall miss latency
system.cpu.icache.overall_avg_miss_latency::total 46211.519646                       # average overall miss latency
system.cpu.icache.blocked_cycles::no_mshrs         2596                       # number of cycles access was blocked
system.cpu.icache.blocked_cycles::no_targets            0                       # number of cycles access was blocked
system.cpu.icache.blocked::no_mshrs                56                       # number of cycles access was blocked
system.cpu.icache.blocked::no_targets               0                       # number of cycles access was blocked
system.cpu.icache.avg_blocked_cycles::no_mshrs    46.357143                       # average number of cycles each access was blocked
system.cpu.icache.avg_blocked_cycles::no_targets          nan                       # average number of cycles each access was blocked
system.cpu.icache.fast_writes                       0                       # number of fast writes performed
system.cpu.icache.cache_copies                      0                       # number of cache copies performed
system.cpu.icache.ReadReq_mshr_hits::switch_cpus.inst         2435                       # number of ReadReq MSHR hits
system.cpu.icache.ReadReq_mshr_hits::total         2435                       # number of ReadReq MSHR hits
system.cpu.icache.demand_mshr_hits::switch_cpus.inst         2435                       # number of demand (read+write) MSHR hits
system.cpu.icache.demand_mshr_hits::total         2435                       # number of demand (read+write) MSHR hits
system.cpu.icache.overall_mshr_hits::switch_cpus.inst         2435                       # number of overall MSHR hits
system.cpu.icache.overall_mshr_hits::total         2435                       # number of overall MSHR hits
system.cpu.icache.ReadReq_mshr_misses::switch_cpus.inst        12275                       # number of ReadReq MSHR misses
system.cpu.icache.ReadReq_mshr_misses::total        12275                       # number of ReadReq MSHR misses
system.cpu.icache.demand_mshr_misses::switch_cpus.inst        12275                       # number of demand (read+write) MSHR misses
system.cpu.icache.demand_mshr_misses::total        12275                       # number of demand (read+write) MSHR misses
system.cpu.icache.overall_mshr_misses::switch_cpus.inst        12275                       # number of overall MSHR misses
system.cpu.icache.overall_mshr_misses::total        12275                       # number of overall MSHR misses
system.cpu.icache.ReadReq_mshr_miss_latency::switch_cpus.inst    536730287                       # number of ReadReq MSHR miss cycles
system.cpu.icache.ReadReq_mshr_miss_latency::total    536730287                       # number of ReadReq MSHR miss cycles
system.cpu.icache.demand_mshr_miss_latency::switch_cpus.inst    536730287                       # number of demand (read+write) MSHR miss cycles
system.cpu.icache.demand_mshr_miss_latency::total    536730287                       # number of demand (read+write) MSHR miss cycles
system.cpu.icache.overall_mshr_miss_latency::switch_cpus.inst    536730287                       # number of overall MSHR miss cycles
system.cpu.icache.overall_mshr_miss_latency::total    536730287                       # number of overall MSHR miss cycles
system.cpu.icache.ReadReq_mshr_miss_rate::switch_cpus.inst     0.072107                       # mshr miss rate for ReadReq accesses
system.cpu.icache.ReadReq_mshr_miss_rate::total     0.072107                       # mshr miss rate for ReadReq accesses
system.cpu.icache.demand_mshr_miss_rate::switch_cpus.inst     0.072107                       # mshr miss rate for demand accesses
system.cpu.icache.demand_mshr_miss_rate::total     0.072107                       # mshr miss rate for demand accesses
system.cpu.icache.overall_mshr_miss_rate::switch_cpus.inst     0.072107                       # mshr miss rate for overall accesses
system.cpu.icache.overall_mshr_miss_rate::total     0.072107                       # mshr miss rate for overall accesses
[...]
system.switch_cpus.iew.wb_count                973035                       # cumulative count of insts written-back
system.switch_cpus.iew.wb_producers            477262                       # num instructions producing a value
system.switch_cpus.iew.wb_consumers            637821                       # num instructions consuming a value
system.switch_cpus.iew.wb_penalized                 0                       # number of instrctions required to write to 'other' IQ
system.switch_cpus.iew.wb_rate               0.354523                       # insts written-back per cycle
system.switch_cpus.iew.wb_fanout             0.748269                       # average fanout of values written-back
system.switch_cpus.iew.wb_penalized_rate            0                       # fraction of instructions written-back that wrote to 'other' IQ
system.switch_cpus.commit.commitSquashedInsts       234394                       # The number of squashed insts skipped by commit
system.switch_cpus.commit.commitNonSpecStalls        11518                       # The number of times commit has been forced to stall to communicate backwards
system.switch_cpus.commit.branchMispredicts        12219                       # The number of times a branch was mispredicted
system.switch_cpus.commit.committed_per_cycle::samples      2071874                       # Number of insts commited each cycle
system.switch_cpus.commit.committed_per_cycle::mean     0.426965                       # Number of insts commited each cycle
system.switch_cpus.commit.committed_per_cycle::stdev     1.357200                       # Number of insts commited each cycle
system.switch_cpus.commit.committed_per_cycle::underflows            0      0.00%      0.00% # Number of insts commited each cycle
system.switch_cpus.commit.committed_per_cycle::0      1747075     84.32%     84.32% # Number of insts commited each cycle
system.switch_cpus.commit.committed_per_cycle::1       152456      7.36%     91.68% # Number of insts commited each cycle
system.switch_cpus.commit.committed_per_cycle::2        61001      2.94%     94.63% # Number of insts commited each cycle
system.switch_cpus.commit.committed_per_cycle::3        25005      1.21%     95.83% # Number of insts commited each cycle
system.switch_cpus.commit.committed_per_cycle::4        25201      1.22%     97.05% # Number of insts commited each cycle
system.switch_cpus.commit.committed_per_cycle::5        10109      0.49%     97.54% # Number of insts commited each cycle
system.switch_cpus.commit.committed_per_cycle::6         8599      0.42%     97.95% # Number of insts commited each cycle
system.switch_cpus.commit.committed_per_cycle::7         7222      0.35%     98.30% # Number of insts commited each cycle
system.switch_cpus.commit.committed_per_cycle::8        35206      1.70%    100.00% # Number of insts commited each cycle
system.switch_cpus.commit.committed_per_cycle::overflows            0      0.00%    100.00% # Number of insts commited each cycle
system.switch_cpus.commit.committed_per_cycle::min_value            0                       # Number of insts commited each cycle
system.switch_cpus.commit.committed_per_cycle::max_value            8                       # Number of insts commited each cycle
system.switch_cpus.commit.committed_per_cycle::total      2071874                       # Number of insts commited each cycle
system.switch_cpus.commit.committedInsts       884618                       # Number of instructions committed
system.switch_cpus.commit.committedOps         884618                       # Number of ops (including micro ops) committed
system.switch_cpus.commit.swp_count                 0                       # Number of s/w prefetches committed
system.switch_cpus.commit.refs                 310277                       # Number of memory references committed
system.switch_cpus.commit.loads                166141                       # Number of loads committed
system.switch_cpus.commit.membars                5911                       # Number of memory barriers committed
system.switch_cpus.commit.branches             124875                       # Number of branches committed
system.switch_cpus.commit.fp_insts               4407                       # Number of committed floating point instructions.
system.switch_cpus.commit.int_insts            848285                       # Number of committed integer instructions.
system.switch_cpus.commit.function_calls        12692                       # Number of function calls committed.
system.switch_cpus.commit.op_class_0::No_OpClass        18316      2.07%      2.07% # Class of committed instruction
system.switch_cpus.commit.op_class_0::IntAlu       525375     59.39%     61.46% # Class of committed instruction
system.switch_cpus.commit.op_class_0::IntMult          730      0.08%     61.54% # Class of committed instruction
system.switch_cpus.commit.op_class_0::IntDiv            0      0.00%     61.54% # Class of committed instruction
system.switch_cpus.commit.op_class_0::FloatAdd         1299      0.15%     61.69% # Class of committed instruction
system.switch_cpus.commit.op_class_0::FloatCmp            1      0.00%     61.69% # Class of committed instruction
system.switch_cpus.commit.op_class_0::FloatCvt            2      0.00%     61.69% # Class of committed instruction
system.switch_cpus.commit.op_class_0::FloatMult            1      0.00%     61.69% # Class of committed instruction
system.switch_cpus.commit.op_class_0::FloatDiv          245      0.03%     61.72% # Class of committed instruction
system.switch_cpus.commit.op_class_0::FloatSqrt            0      0.00%     61.72% # Class of committed instruction
system.switch_cpus.commit.op_class_0::SimdAdd            0      0.00%     61.72% # Class of committed instruction
system.switch_cpus.commit.op_class_0::SimdAddAcc            0      0.00%     61.72% # Class of committed instruction
system.switch_cpus.commit.op_class_0::SimdAlu            0      0.00%     61.72% # Class of committed instruction
system.switch_cpus.commit.op_class_0::SimdCmp            0      0.00%     61.72% # Class of committed instruction
system.switch_cpus.commit.op_class_0::SimdCvt            0      0.00%     61.72% # Class of committed instruction
system.switch_cpus.commit.op_class_0::SimdMisc            0      0.00%     61.72% # Class of committed instruction
system.switch_cpus.commit.op_class_0::SimdMult            0      0.00%     61.72% # Class of committed instruction
system.switch_cpus.commit.op_class_0::SimdMultAcc            0      0.00%     61.72% # Class of committed instruction
system.switch_cpus.commit.op_class_0::SimdShift            0      0.00%     61.72% # Class of committed instruction
system.switch_cpus.commit.op_class_0::SimdShiftAcc            0      0.00%     61.72% # Class of committed instruction
system.switch_cpus.commit.op_class_0::SimdSqrt            0      0.00%     61.72% # Class of committed instruction
system.switch_cpus.commit.op_class_0::SimdFloatAdd            0      0.00%     61.72% # Class of committed instruction
system.switch_cpus.commit.op_class_0::SimdFloatAlu            0      0.00%     61.72% # Class of committed instruction
system.switch_cpus.commit.op_class_0::SimdFloatCmp            0      0.00%     61.72% # Class of committed instruction
system.switch_cpus.commit.op_class_0::SimdFloatCvt            0      0.00%     61.72% # Class of committed instruction
system.switch_cpus.commit.op_class_0::SimdFloatDiv            0      0.00%     61.72% # Class of committed instruction
system.switch_cpus.commit.op_class_0::SimdFloatMisc            0      0.00%     61.72% # Class of committed instruction
system.switch_cpus.commit.op_class_0::SimdFloatMult            0      0.00%     61.72% # Class of committed instruction
system.switch_cpus.commit.op_class_0::SimdFloatMultAcc            0      0.00%     61.72% # Class of committed instruction
system.switch_cpus.commit.op_class_0::SimdFloatSqrt            0      0.00%     61.72% # Class of committed instruction
system.switch_cpus.commit.op_class_0::MemRead       172052     19.45%     81.17% # Class of committed instruction
system.switch_cpus.commit.op_class_0::MemWrite       144500     16.33%     97.50% # Class of committed instruction
system.switch_cpus.commit.op_class_0::IprAccess        22097      2.50%    100.00% # Class of committed instruction
system.switch_cpus.commit.op_class_0::InstPrefetch            0      0.00%    100.00% # Class of committed instruction
system.switch_cpus.commit.op_class_0::total       884618                       # Class of committed instruction
system.switch_cpus.commit.bw_lim_events         35206                       # number cycles where commit BW limit reached
system.switch_cpus.rob.rob_reads              3135467                       # The number of ROB reads
system.switch_cpus.rob.rob_writes             2278786                       # The number of ROB writes
system.switch_cpus.timesIdled                   10512                       # Number of times that the entire CPU went into an idle state and unscheduled itself
system.switch_cpus.idleCycles                  632300                       # Total number of cycles that the CPU has spent unscheduled due to idling
system.switch_cpus.committedInsts              866794                       # Number of Instructions Simulated
system.switch_cpus.committedOps                866794                       # Number of Ops (including micro ops) Simulated
system.switch_cpus.cpi                       3.166414                       # CPI: Cycles Per Instruction
system.switch_cpus.cpi_total                 3.166414                       # CPI: Total CPI of All Threads
system.switch_cpus.ipc                       0.315815                       # IPC: Instructions Per Cycle
system.switch_cpus.ipc_total                 0.315815                       # IPC: Total IPC of All Threads
system.switch_cpus.int_regfile_reads          1329600                       # number of integer regfile reads
system.switch_cpus.int_regfile_writes          675761                       # number of integer regfile writes
system.switch_cpus.fp_regfile_reads              3014                       # number of floating regfile reads
system.switch_cpus.fp_regfile_writes             2768                       # number of floating regfile writes
system.switch_cpus.misc_regfile_reads           29967                       # number of misc regfile reads
system.switch_cpus.misc_regfile_writes          17938                       # number of misc regfile writes
system.tol2bus.trans_dist::ReadReq              30375                       # Transaction distribution
system.tol2bus.trans_dist::ReadResp             30376                       # Transaction distribution
system.tol2bus.trans_dist::WriteReq               149                       # Transaction distribution
system.tol2bus.trans_dist::WriteResp              149                       # Transaction distribution
system.tol2bus.trans_dist::Writeback            14613                       # Transaction distribution
system.tol2bus.trans_dist::UpgradeReq               1                       # Transaction distribution
system.tol2bus.trans_dist::UpgradeResp              1                       # Transaction distribution
system.tol2bus.trans_dist::ReadExReq             9773                       # Transaction distribution
system.tol2bus.trans_dist::ReadExResp            9773                       # Transaction distribution
system.tol2bus.pkt_count_system.cpu.icache.mem_side::system.l2.cpu_side        31369                       # Packet count per connected master and slave (bytes)
system.tol2bus.pkt_count_system.cpu.dcache.mem_side::system.l2.cpu_side        63831                       # Packet count per connected master and slave (bytes)
system.tol2bus.pkt_count::total                 95200                       # Packet count per connected master and slave (bytes)
system.tol2bus.pkt_size_system.cpu.icache.mem_side::system.l2.cpu_side      1003520                       # Cumulative packet size per connected master and slave (bytes)
system.tol2bus.pkt_size_system.cpu.dcache.mem_side::system.l2.cpu_side      2480492                       # Cumulative packet size per connected master and slave (bytes)
system.tol2bus.pkt_size::total                3484012                       # Cumulative packet size per connected master and slave (bytes)
system.tol2bus.snoops                              10                       # Total snoops (count)
system.tol2bus.snoop_fanout::samples            54911                       # Request fanout histogram
system.tol2bus.snoop_fanout::mean                   1                       # Request fanout histogram
system.tol2bus.snoop_fanout::stdev                  0                       # Request fanout histogram
system.tol2bus.snoop_fanout::underflows             0      0.00%      0.00% # Request fanout histogram
system.tol2bus.snoop_fanout::0                      0      0.00%      0.00% # Request fanout histogram
system.tol2bus.snoop_fanout::1                  54911    100.00%    100.00% # Request fanout histogram
system.tol2bus.snoop_fanout::2                      0      0.00%    100.00% # Request fanout histogram
system.tol2bus.snoop_fanout::overflows              0      0.00%    100.00% # Request fanout histogram
system.tol2bus.snoop_fanout::min_value              1                       # Request fanout histogram
system.tol2bus.snoop_fanout::max_value              1                       # Request fanout histogram
system.tol2bus.snoop_fanout::total              54911                       # Request fanout histogram
system.tol2bus.reqLayer0.occupancy           42143000                       # Layer occupancy (ticks)
system.tol2bus.reqLayer0.utilization              3.1                       # Layer utilization (%)
system.tol2bus.respLayer0.occupancy          24790731                       # Layer occupancy (ticks)
system.tol2bus.respLayer0.utilization             1.8                       # Layer utilization (%)
system.tol2bus.respLayer1.occupancy          38708248                       # Layer occupancy (ticks)
system.tol2bus.respLayer1.utilization             2.8                       # Layer utilization (%)
system.tsunami.ethernet.descDMAReads                0                       # Number of descriptors the device read w/ DMA
system.tsunami.ethernet.descDMAWrites               0                       # Number of descriptors the device wrote w/ DMA
system.tsunami.ethernet.descDmaReadBytes            0                       # number of descriptor bytes read w/ DMA
system.tsunami.ethernet.descDmaWriteBytes            0                       # number of descriptor bytes write w/ DMA
system.tsunami.ethernet.postedSwi                   0                       # number of software interrupts posted to CPU
system.tsunami.ethernet.coalescedSwi              nan                       # average number of Swi's coalesced into each post
system.tsunami.ethernet.totalSwi                    0                       # total number of Swi written to ISR
system.tsunami.ethernet.postedRxIdle                0                       # number of rxIdle interrupts posted to CPU
system.tsunami.ethernet.coalescedRxIdle           nan                       # average number of RxIdle's coalesced into each post
system.tsunami.ethernet.totalRxIdle                 0                       # total number of RxIdle written to ISR
system.tsunami.ethernet.postedRxOk                  0                       # number of RxOk interrupts posted to CPU
system.tsunami.ethernet.coalescedRxOk             nan                       # average number of RxOk's coalesced into each post
system.tsunami.ethernet.totalRxOk                   0                       # total number of RxOk written to ISR
system.tsunami.ethernet.postedRxDesc                0                       # number of RxDesc interrupts posted to CPU
system.tsunami.ethernet.coalescedRxDesc           nan                       # average number of RxDesc's coalesced into each post
system.tsunami.ethernet.totalRxDesc                 0                       # total number of RxDesc written to ISR
system.tsunami.ethernet.postedTxOk                  0                       # number of TxOk interrupts posted to CPU
system.tsunami.ethernet.coalescedTxOk             nan                       # average number of TxOk's coalesced into each post
system.tsunami.ethernet.totalTxOk                   0                       # total number of TxOk written to ISR
system.tsunami.ethernet.postedTxIdle                0                       # number of TxIdle interrupts posted to CPU
system.tsunami.ethernet.coalescedTxIdle           nan                       # average number of TxIdle's coalesced into each post
system.tsunami.ethernet.totalTxIdle                 0                       # total number of TxIdle written to ISR
system.tsunami.ethernet.postedTxDesc                0                       # number of TxDesc interrupts posted to CPU
system.tsunami.ethernet.coalescedTxDesc           nan                       # average number of TxDesc's coalesced into each post
system.tsunami.ethernet.totalTxDesc                 0                       # total number of TxDesc written to ISR
system.tsunami.ethernet.postedRxOrn                 0                       # number of RxOrn posted to CPU
system.tsunami.ethernet.coalescedRxOrn            nan                       # average number of RxOrn's coalesced into each post
system.tsunami.ethernet.totalRxOrn                  0                       # total number of RxOrn written to ISR
system.tsunami.ethernet.coalescedTotal            nan                       # average number of interrupts coalesced into each post
system.tsunami.ethernet.postedInterrupts            0                       # number of posts to CPU
system.tsunami.ethernet.droppedPackets              0                       # number of packets dropped
system.switch_cpus.kern.inst.arm                    0                       # number of arm instructions executed
system.switch_cpus.kern.inst.quiesce                0                       # number of quiesce instructions executed
system.switch_cpus.kern.inst.hwrei                  0                       # number of hwrei instructions executed
system.switch_cpus.kern.mode_switch::kernel            0                       # number of protection mode switches
system.switch_cpus.kern.mode_switch::user            0                       # number of protection mode switches
system.switch_cpus.kern.mode_switch::idle            0                       # number of protection mode switches
system.switch_cpus.kern.mode_good::kernel            0                      
system.switch_cpus.kern.mode_good::user             0                      
system.switch_cpus.kern.mode_good::idle             0                      
system.switch_cpus.kern.mode_switch_good::kernel          nan                       # fraction of useful protection mode switches
system.switch_cpus.kern.mode_switch_good::user          nan                       # fraction of useful protection mode switches
system.switch_cpus.kern.mode_switch_good::idle          nan                       # fraction of useful protection mode switches
system.switch_cpus.kern.mode_switch_good::total          nan                       # fraction of useful protection mode switches
system.switch_cpus.kern.mode_ticks::kernel            0                       # number of ticks spent at the given mode
system.switch_cpus.kern.mode_ticks::user            0                       # number of ticks spent at the given mode
system.switch_cpus.kern.mode_ticks::idle            0                       # number of ticks spent at the given mode
system.switch_cpus.kern.swap_context                0                       # number of times the context was actually changed

---------- End Simulation Statistics   ----------
