 ****** HSPICE -- D-2010.03-SP1 32-BIT (May 26 2010) winnt ******               
  Copyright (C) 2010 Synopsys, Inc. All Rights Reserved.                        
  Unpublished-rights reserved under US copyright laws.
  This program is protected by law and is subject to the 
  terms and conditions of the license agreement from Synopsys.
  Use of this program is your acceptance to be bound by the 
  license agreement. HSPICE is the trademark of Synopsys, Inc.
  Input File: d:\aut\mt_hw02\sram\main.sp                                       
  lic:  
  lic: FLEXlm: v8.5b 
  lic: USER:   NOVINSYSTEM          HOSTNAME: NOVINSYSTEM-PC 
  lic: HOSTID: 00241d50ceae         PID:      3004 
  lic: Using FLEXlm license file: 
  lic: 27000@elena 
  lic: Checkout 1 hspice 
  lic: License/Maintenance for hspice will expire on 31-dec-2020/2007.9 
  lic: NODE LOCKED license on hostid 00241d50ceae 
  lic:   
 Init: read install configuration file: C:\synopsys\Hspice_D-2010.03-SP1\meta.cfg
1****** HSPICE -- D-2010.03-SP1 32-BIT (May 26 2010) winnt ******               
 ******  
 * **************************************************

  ******  circuit name directory
 circuit number to circuit name directory
   number circuitname                     definition         multiplier
        0 main circuit
        1 xnot1.                          not                1.00 
        2 xnot2.                          not                1.00 
        3 xdecoder.                       decoder            1.00 
        4 xword1.                         word               1.00 
        5 xword2.                         word               1.00 
        6 xword3.                         word               1.00 
        7 xword1.xsram1.                  sram_cell          1.00 
        8 xword1.xsram2.                  sram_cell          1.00 
        9 xword1.xsram3.                  sram_cell          1.00 
       10 xword2.xsram1.                  sram_cell          1.00 
       11 xword2.xsram2.                  sram_cell          1.00 
       12 xword2.xsram3.                  sram_cell          1.00 
       13 xword3.xsram1.                  sram_cell          1.00 
       14 xword3.xsram2.                  sram_cell          1.00 
       15 xword3.xsram3.                  sram_cell          1.00 
  **warning** (d:\aut\mt_hw02\sram\main.sp:24) Both nodes of element vgnd are connected together; Line ignored.
  **info** (d:\aut\mt_hw02\sram\main.sp:59) DC voltage reset to initial transient source value              in source        0:v_wl1               new dc=  0.0000D+00
 Warning:  Acde = 1 may be too small in BSIM4 model nmos with w=7.2e-007 l=3.6e-007.

 Warning:  Acde = 1 may be too small in BSIM4 model nmos with w=1.44e-006 l=3.6e-007.

 Warning:  Acde = 1 may be too small in BSIM4 model pmos with w=1.8e-006 l=3.6e-007.

 
  **warning** (d:\aut\mt_hw02\sram\main.sp:67) No connections on node bl_2; Node ignored.
  **warning** (d:\aut\mt_hw02\sram\SRAM_Cell\Cell.sp:17) Only 1 connection at node bl11 called in element xword1.xsram1.m6.

 **warning** the following singular supplies were terminated to 1 meg resistor 
   supply       node1            node2
  v_bl1                   0:bl1              defined in subckt 0                     0:0                defined in subckt 0               
  ic3                     0:bl_1             defined in subckt 0                     0:                 defined in subckt 0               
  v_blnot1                0:blnot1           defined in subckt 0                     0:0                defined in subckt 0               
  v_in33                  0:in33             defined in subckt 0                     0:0                defined in subckt 0               
      
 **info** set option symb=1 internally to help for convergence.
 *****************************************************************
 ******  option summary
 ******
 runlvl  = 5         bypass  = 2         
  Opening plot unit= 79
 file=d:\aut\mt_hw02\sram\main.pa0                                             

1****** HSPICE -- D-2010.03-SP1 32-BIT (May 26 2010) winnt ******               
 ******  
 * **************************************************

  ******  operating point information tnom=  25.000 temp=  25.000 *****
 ***** operating point status is all       simulation time is     0.     
     node    =voltage       node    =voltage       node    =voltage

 + 0:bl1     =   0.       0:bl1_not =   1.8000   0:bl2_not = 219.4396m
 + 0:bl3_not = 219.4396m  0:bl_1    =   1.8000   0:bl_2    =   0.     
 + 0:bl_3    =   0.       0:blnot1  =   0.       0:in11    =   0.     
 + 0:in11!   =   1.7490   0:in22    =   0.       0:in22!   =   1.7490 
 + 0:in33    =   0.       0:q1_1    =  85.1581n  0:q1_1not =   1.8000 
 + 0:q1_2    = 668.4716m  0:q1_2not = 668.4716m  0:q1_3    = 668.4716m
 + 0:q1_3not = 668.4716m  0:q2_1    =   1.7441   0:q2_1not =   4.2489m
 + 0:q2_2    = 668.4721m  0:q2_2not = 668.4721m  0:q2_3    = 668.4721m
 + 0:q2_3not = 668.4721m  0:q3_1    =   1.7441   0:q3_1not =   4.2489m
 + 0:q3_2    = 668.4721m  0:q3_2not = 668.4721m  0:q3_3    = 668.4721m
 + 0:q3_3not = 668.4721m  0:vdd     =   1.8000   0:wl1     =   0.     
 + 0:wl2     = 193.9767m  0:wl3     = 193.9767m  0:wl4     =  93.6111m
 + 4:bl11    =  85.0698n  4:bl21    = 108.7424m  4:bl33    = 108.7424m
 + 5:bl11    = 269.0627m  5:bl21    = 267.7146m  5:bl33    = 267.7146m
 + 6:bl11    = 269.0627m  6:bl21    = 267.7146m  6:bl33    = 267.7146m


 ****  voltage sources

 subckt                                                              
 element   0:vdd       0:v_in11    0:v_in22    0:v_in33    0:v_wl1   
  volts       1.8000      0.          0.          0.          0.     
  current    -1.1441m   567.8896n   567.8896n     0.        131.5622u
  power       2.0593m     0.          0.          0.          0.     

 subckt                          
 element   0:v_bl1     0:v_blnot1
  volts       0.          0.     
  current     0.          0.     
  power       0.          0.     

     total voltage source power dissipation=    2.0593m       watts




 **** mosfets


 subckt    xnot1       xnot1       xnot2       xnot2       xdecoder  
 element   1:mp        1:mn        2:mp        2:mn        3:mn11    
 model     0:pmos      0:nmos      0:pmos      0:nmos      0:nmos    
 region        Linear      Cutoff      Linear      Cutoff      Cutoff
  id        -11.0942u    57.5472p   -11.0942u    57.5472p     0.     
  ibs      -8.375e-19   4.404e-19  -8.375e-19   4.404e-19     0.     
  ibd        59.6497f    -1.7590p    59.6497f    -1.7590p     0.     
  vgs        -1.8000      0.         -1.8000      0.          0.     
  vds       -51.0230m     1.7490    -51.0230m     1.7490      0.     
  vbs         0.          0.          0.          0.          0.     
  vth      -418.9569m   469.6332m  -418.9569m   469.6332m   469.9773m
  vdsat      -1.1330     40.2387m    -1.1330     40.2387m    40.2388m
  vod        -1.3810   -469.6332m    -1.3810   -469.6332m  -469.9773m
  beta      166.3605u     1.4938m   166.3605u     1.4938m     1.4931m
  gam eff   488.0000m   528.0000m   488.0000m   528.0000m   528.0000m
  gm          4.0235u     1.4057n     4.0235u     1.4057n     0.     
  gds       212.3644u     4.7596p   212.3644u     4.7596p     2.0217n
  gmb         3.2047u   520.7056p     3.2047u   520.7056p     0.     
  cdtot      11.3241f   434.3190a    11.3241f   434.3190a   643.3722a
  cgtot      18.2401f     2.1354f    18.2401f     2.1354f     2.2430f
  cstot       7.9235f   858.9400a     7.9235f   858.9400a   858.9386a
  cbtot       6.0007f     2.5075f     6.0007f     2.5075f     2.6089f
  cgs         9.9680f   284.1515a     9.9680f   284.1515a   284.1465a
  cgd         8.7055f   176.4422a     8.7055f   176.4422a   284.0913a



 subckt    xdecoder    xdecoder    xdecoder    xdecoder    xdecoder  
 element   3:mn12      3:mp1       3:mn21      3:mn22      3:mp2     
 model     0:nmos      0:pmos      0:nmos      0:nmos      0:pmos    
 region        Cutoff    Saturati      Linear      Cutoff    Saturati
  id          0.       -131.2526u   133.1144u    51.3671p  -130.5597u
  ibs         0.       -8.402e-19   1.860e-19   1.916e-25  -8.399e-19
  ibd         0.          1.8100p  -203.9712f  -203.9714f     1.6160p
  vgs         0.         -1.8000      1.7490      0.         -1.8000 
  vds         0.         -1.8000    193.9767m   193.9767m    -1.6060 
  vbs         0.          0.          0.          0.          0.     
  vth       469.9773m  -418.4981m   469.9389m   469.9390m  -418.5489m
  vdsat      40.2388m    -1.1334    873.3472m    40.2388m    -1.1334 
  vod      -469.9773m    -1.3815      1.2790   -469.9390m    -1.3815 
  beta        1.4931m   166.3954u   785.3855u     1.4932m   166.3915u
  gam eff   528.0000m   488.0000m   528.0000m   528.0000m   488.0000m
  gm          0.        130.0106u    42.2686u     1.2547n   129.1778u
  gds         2.0217n     3.4512u   606.5662u     6.2898p     3.7751u
  gmb         0.         39.7485u    48.9319u   464.8857p    39.5376u
  cdtot     643.3722a     1.3595f     4.1365f   571.1824a     1.4835f
  cgtot       2.2430f    15.0921f     6.4885f     2.1911f    15.1988f
  cstot     858.9386a    10.6058f     3.1597f   858.9398a    10.6056f
  cbtot       2.6089f     4.6325f     2.5129f     2.5887f     4.6482f
  cgs       284.1465a    14.6502f     3.6836f   284.1483a    14.6497f
  cgd       284.0913a   715.2011a     3.0156f   232.1392a   822.6263a



 subckt    xdecoder    xdecoder    xdecoder    xdecoder    xdecoder  
 element   3:mn31      3:mn32      3:mp3       3:mn41      3:mn42    
 model     0:nmos      0:nmos      0:pmos      0:nmos      0:nmos    
 region        Cutoff      Linear    Saturati      Linear      Linear
  id         51.3671p   133.1144u  -130.5597u    68.1067u    68.1067u
  ibs       1.916e-25   1.860e-19  -8.399e-19   1.860e-19   1.860e-19
  ibd      -203.9714f  -203.9712f     1.6160p  -103.3494f  -103.3494f
  vgs         0.          1.7490     -1.8000      1.7490      1.7490 
  vds       193.9767m   193.9767m    -1.6060     93.6111m    93.6111m
  vbs         0.          0.          0.          0.          0.     
  vth       469.9390m   469.9389m  -418.5489m   469.9587m   469.9587m
  vdsat      40.2388m   873.3472m    -1.1334    873.3355m   873.3355m
  vod      -469.9390m     1.2790     -1.3815      1.2790      1.2790 
  beta        1.4932m   785.3855u   166.3915u   785.3761u   785.3761u
  gam eff   528.0000m   528.0000m   488.0000m   528.0000m   528.0000m
  gm          1.2547n    42.2686u   129.1778u    18.5529u    18.5529u
  gds         6.2898p   606.5662u     3.7751u   688.9386u   688.9386u
  gmb       464.8857p    48.9319u    39.5376u    24.3463u    24.3463u
  cdtot     571.1824a     4.1365f     1.4835f     4.4926f     4.4926f
  cgtot       2.1911f     6.4885f    15.1988f     6.5450f     6.5450f
  cstot     858.9398a     3.1597f    10.6056f     2.9647f     2.9647f
  cbtot       2.5887f     2.5129f     4.6482f     2.5762f     2.5762f
  cgs       284.1483a     3.6836f    14.6497f     3.4317f     3.4317f
  cgd       232.1392a     3.0156f   822.6263a     3.3379f     3.3379f



 subckt    xdecoder    xword1.xsr  xword1.xsr  xword1.xsr  xword1.xsr
 element   3:mp4       7:m1        7:m2        7:m3        7:m4      
 model     0:pmos      0:nmos      0:pmos      0:nmos      0:pmos    
 region      Saturati      Cutoff      Linear      Linear      Cutoff
  id       -130.9262u   116.4048p   -35.7089p   132.7697p   -24.9995p
  ibs      -8.400e-19     1.6828a  -8.374e-19   5.631e-19    -1.0609a
  ibd         1.7164p    -1.8100p  -9.340e-19   6.606e-19     1.8100p
  vgs        -1.8000     85.1581n    -1.8000      1.8000   -160.4809n
  vds        -1.7064      1.8000   -160.4809n    85.1581n    -1.8000 
  vbs         0.          0.          0.          0.          0.     
  vth      -418.5226m   469.6225m  -418.9703m   469.9770m  -418.4980m
  vdsat      -1.1334     40.2387m    -1.1330    903.9177m   -41.8620m
  vod        -1.3815   -469.6224m    -1.3810      1.3300    418.4978m
  beta      166.3935u     3.0086m   166.3595u     1.5449m   239.7253u
  gam eff   488.0000m   528.0000m   488.0000m   528.0000m   488.0000m
  gm        129.6611u     2.8433n    12.3882p    28.2060p   626.2534p
  gds         3.5461u     9.8687p   222.5115u     1.5591m     7.1932p
  gmb        39.6503u     1.0533n    10.3026p    44.9975p   196.1993p
  cdtot       1.4290f   867.5343a    11.5677f     9.5573f     1.0829f
  cgtot      15.1537f     4.2917f    18.2714f    13.2071f     4.9765f
  cstot      10.6057f     1.7219f     7.7823f     5.6234f     2.1512f
  cbtot       4.6399f     5.0269f     6.1369f     5.2840f     5.8982f
  cgs        14.6500f   572.3238a     9.7670f     6.4890f   714.2117a
  cgd       777.0552a   354.8900a     8.9430f     7.2036f   442.0561a



 subckt    xword1.xsr  xword1.xsr  xword1.xsr  xword1.xsr  xword1.xsr
 element   7:m5        7:m6        8:m1        8:m2        8:m3      
 model     0:nmos      0:nmos      0:nmos      0:pmos      0:nmos    
 region        Cutoff      Cutoff    Saturati    Saturati    Saturati
  id          0.       -1.785e-19    47.4319u   -47.4404u    47.4319u
  ibs        -1.8001p  -8.535e-20   7.702e-25  -5.905e-22   7.702e-25
  ibd        -1.8100p  -1.182e-19  -678.4716f     1.1415p  -678.4716f
  vgs        -1.8000    -85.1581n   668.4716m    -1.1315    668.4716m
  vds      -152.6453n   -88.3040p   668.4716m    -1.1315    668.4716m
  vbs        -1.8000    -85.1581n     0.          0.          0.     
  vth       855.1683m   469.9774m   469.8455m  -418.6737m   469.8455m
  vdsat      41.1304m    40.2388m   183.4929m  -611.6313m   183.4929m
  vod        -2.6552   -469.9775m   198.6261m  -712.8547m   198.6261m
  beta      921.2574u     1.4931m     2.7273m   214.3674u     2.7273m
  gam eff   528.0000m   528.0000m   528.0000m   488.0000m   528.0000m
  gm          0.          4.3607a   381.4434u   107.5242u   381.4434u
  gds         0.          2.0217n     1.8800u     1.5136u     1.8800u
  gmb         0.          1.6271a   123.9618u    30.8998u   123.9618u
  cdtot     432.5262a   643.3706a     1.1825f     1.4212f     1.1825f
  cgtot       2.0273f     2.2430f    10.3674f    14.8367f    10.3674f
  cstot     586.3195a   858.9402a     7.5366f    10.3766f     7.5366f
  cbtot       2.3413f     2.6089f     4.6707f     5.0674f     4.6707f
  cgs       176.2041a   284.0913a     9.0665f    13.8671f     9.0665f
  cgd       176.2670a   284.1464a   573.0104a   716.4927a   573.0104a



 subckt    xword1.xsr  xword1.xsr  xword1.xsr  xword1.xsr  xword1.xsr
 element   8:m4        8:m5        8:m6        9:m1        9:m2      
 model     0:pmos      0:nmos      0:nmos      0:nmos      0:pmos    
 region      Saturati      Cutoff      Cutoff    Saturati    Saturati
  id        -47.4404u    28.5838f    -1.3253p    47.4319u   -47.4404u
  ibs      -5.905e-22  -219.4965f  -668.5285f   7.702e-25  -5.905e-22
  ibd         1.1415p  -678.4716f  -118.5973f  -678.4716f     1.1415p
  vgs        -1.1315   -219.4396m  -668.4716m   668.4716m    -1.1315 
  vds        -1.1315    449.0320m  -559.7292m   668.4716m    -1.1315 
  vbs         0.       -219.4396m  -668.4716m     0.          0.     
  vth      -418.6737m   529.9129m   500.4005m   469.8455m  -418.6737m
  vdsat    -611.6313m    40.7984m    40.5494m   183.4929m  -611.6313m
  vod      -712.8547m  -749.3525m    -1.1689    198.6261m  -712.8547m
  beta      214.3674u     1.3841m     1.4369m     2.7273m   214.3674u
  gam eff   488.0000m   528.0000m   528.0000m   528.0000m   488.0000m
  gm        107.5242u   729.2729f    33.1775p   381.4434u   107.5242u
  gds         1.5136u     2.1187f    93.9471f     1.8800u     1.5136u
  gmb        30.8998u   267.2190f    12.2573p   123.9618u    30.8998u
  cdtot       1.4212f   493.5197a   599.9877a     1.1825f     1.4212f
  cgtot      14.8367f     2.0917f     2.1172f    10.3674f    14.8367f
  cstot      10.3766f   765.8777a   675.8205a     7.5366f    10.3766f
  cbtot       5.0674f     2.5174f     2.5083f     4.6707f     5.0674f
  cgs        13.8671f   227.1984a   189.6849a     9.0665f    13.8671f
  cgd       716.4927a   189.6849a   252.6850a   573.0104a   716.4927a



 subckt    xword1.xsr  xword1.xsr  xword1.xsr  xword1.xsr  xword2.xsr
 element   9:m3        9:m4        9:m5        9:m6       10:m1      
 model     0:nmos      0:pmos      0:nmos      0:nmos      0:nmos    
 region      Saturati    Saturati      Cutoff      Cutoff      Linear
  id         47.4319u   -47.4404u    28.5838f    -1.3253p     6.5269u
  ibs       7.702e-25  -5.905e-22  -219.4965f  -668.5285f   3.609e-19
  ibd      -678.4716f     1.1415p  -678.4716f  -118.5973f    -5.7727f
  vgs       668.4716m    -1.1315   -219.4396m  -668.4716m     1.7441 
  vds       668.4716m    -1.1315    449.0320m  -559.7292m     4.2489m
  vbs         0.          0.       -219.4396m  -668.4716m     0.     
  vth       469.8455m  -418.6737m   529.9129m   500.4005m   469.9763m
  vdsat     183.4929m  -611.6313m    40.7984m    40.5494m   870.4331m
  vod       198.6261m  -712.8547m  -749.3525m    -1.1689      1.2741 
  beta        2.7273m   214.3674u     1.3841m     1.4369m     1.5854m
  gam eff   528.0000m   488.0000m   528.0000m   528.0000m   528.0000m
  gm        381.4434u   107.5242u   729.2729f    33.1775p     1.5536u
  gds         1.8800u     1.5136u     2.1187f    93.9471f     1.5326m
  gmb       123.9618u    30.8998u   267.2190f    12.2573p     2.2834u
  cdtot       1.1825f     1.4212f   493.5197a   599.9877a     9.5128f
  cgtot      10.3674f    14.8367f     2.0917f     2.1172f    13.2267f
  cstot       7.5366f    10.3766f   765.8777a   675.8205a     5.6545f
  cbtot       4.6707f     5.0674f     2.5174f     2.5083f     5.2795f
  cgs         9.0665f    13.8671f   227.1984a   189.6849a     6.5352f
  cgd       573.0104a   716.4927a   189.6849a   252.6850a     7.1649f



 subckt    xword2.xsr  xword2.xsr  xword2.xsr  xword2.xsr  xword2.xsr
 element  10:m2       10:m3       10:m4       10:m5       10:m6      
 model     0:pmos      0:nmos      0:pmos      0:nmos      0:nmos    
 region        Cutoff      Cutoff      Linear      Cutoff      Cutoff
  id       -100.9277p   128.5284p   -12.1133u    -5.4368n  -791.0479f
  ibs      -4.728e-19   7.808e-19  -8.065e-19    -1.8001p    -1.7441p
  ibd         1.8058p    -1.7541p    64.7866f    -5.7731f  -279.0624f
  vgs       -55.9216m     4.2489m    -1.7958     -1.6060     -1.5501 
  vds        -1.7958      1.7441    -55.9216m    -1.7958     -1.4750 
  vbs         0.          0.          0.         -1.8000     -1.7441 
  vth      -418.4994m   469.6339m  -418.9556m   470.8497m   542.4740m
  vdsat     -41.8721m    40.2388m    -1.1298     40.3752m    40.8913m
  vod       362.5777m  -465.3850m    -1.3768     -2.0769     -2.0926 
  beta      239.7319u     3.0086m   166.6111u     1.4913m     1.3622m
  gam eff   488.0000m   528.0000m   488.0000m   528.0000m   528.0000m
  gm          2.5118n     3.1387n     4.4374u   128.2443n    20.3221p
  gds        28.8786p    10.6051p   211.0473u   458.4851p    58.0923f
  gmb       759.8265p     1.1600n     3.5080u    42.6413n     6.8362p
  cdtot       1.0839f   871.5144a    11.2955f   684.4497a   594.4240a
  cgtot       4.9012f     4.2869f    18.2396f     2.0235f     1.9603f
  cstot       2.1896f     1.7243f     7.9407f   587.2995a   590.3543a
  cbtot       5.7841f     5.0224f     5.9880f     2.2896f     2.2658f
  cgs       752.6081a   574.7657a     9.9934f   177.1841a   177.5094a
  cgd       442.7674a   355.4583a     8.6782f   325.9080a   262.1337a



 subckt    xword2.xsr  xword2.xsr  xword2.xsr  xword2.xsr  xword2.xsr
 element  11:m1       11:m2       11:m3       11:m4       11:m5      
 model     0:nmos      0:pmos      0:nmos      0:pmos      0:nmos    
 region      Saturati    Saturati    Saturati    Saturati      Cutoff
  id         47.4321u   -47.4404u    47.4321u   -47.4404u     4.0229p
  ibs       7.702e-25  -5.905e-22   7.702e-25  -5.905e-22  -219.4965f
  ibd      -678.4721f     1.1415p  -678.4721f     1.1415p  -678.4721f
  vgs       668.4721m    -1.1315    668.4721m    -1.1315    -25.4629m
  vds       668.4721m    -1.1315    668.4721m    -1.1315    449.0326m
  vbs         0.          0.          0.          0.       -219.4396m
  vth       469.8455m  -418.6737m   469.8455m  -418.6737m   529.9129m
  vdsat     183.4933m  -611.6309m   183.4933m  -611.6309m    40.7985m
  vod       198.6266m  -712.8541m   198.6266m  -712.8541m  -555.3758m
  beta        2.7273m   214.3675u     2.7273m   214.3675u     1.3841m
  gam eff   528.0000m   488.0000m   528.0000m   488.0000m   528.0000m
  gm        381.4441u   107.5242u   381.4442u   107.5242u   102.4983p
  gds         1.8800u     1.5136u     1.8800u     1.5136u   298.1574f
  gmb       123.9620u    30.8998u   123.9621u    30.8998u    34.4974p
  cdtot       1.1825f     1.4212f     1.1825f     1.4212f   502.2806a
  cgtot      10.3674f    14.8367f    10.3674f    14.8367f     1.9958f
  cstot       7.5366f    10.3766f     7.5366f    10.3766f   815.3950a
  cbtot       4.6707f     5.0674f     4.6707f     5.0674f     2.3632f
  cgs         9.0665f    13.8671f     9.0665f    13.8671f   276.7106a
  cgd       573.0104a   716.4927a   573.0104a   716.4927a   198.4459a



 subckt    xword2.xsr  xword2.xsr  xword2.xsr  xword2.xsr  xword2.xsr
 element  11:m6       12:m1       12:m2       12:m3       12:m4      
 model     0:nmos      0:nmos      0:pmos      0:nmos      0:pmos    
 region        Cutoff    Saturati    Saturati    Saturati    Saturati
  id       -769.2539f    47.4321u   -47.4404u    47.4321u   -47.4404u
  ibs      -668.5291f   7.702e-25  -5.905e-22   7.702e-25  -5.905e-22
  ibd      -277.7143f  -678.4721f     1.1415p  -678.4721f     1.1415p
  vgs      -474.4955m   668.4721m    -1.1315    668.4721m    -1.1315 
  vds      -400.7575m   668.4721m    -1.1315    668.4721m    -1.1315 
  vbs      -668.4721m     0.          0.          0.          0.     
  vth       542.3414m   469.8455m  -418.6737m   469.8455m  -418.6737m
  vdsat      40.8890m   183.4933m  -611.6309m   183.4933m  -611.6309m
  vod        -1.0168    198.6266m  -712.8541m   198.6266m  -712.8541m
  beta        1.3625m     2.7273m   214.3675u     2.7273m   214.3675u
  gam eff   528.0000m   528.0000m   488.0000m   528.0000m   488.0000m
  gm         19.7581p   381.4441u   107.5242u   381.4442u   107.5242u
  gds        58.6688f     1.8800u     1.5136u     1.8800u     1.5136u
  gmb         6.6474p   123.9620u    30.8998u   123.9621u    30.8998u
  cdtot     594.9291a     1.1825f     1.4212f     1.1825f     1.4212f
  cgtot       1.9816f    10.3674f    14.8367f    10.3674f    14.8367f
  cstot     684.5815a     7.5366f    10.3766f     7.5366f    10.3766f
  cbtot       2.3392f     4.6707f     5.0674f     4.6707f     5.0674f
  cgs       198.4459a     9.0665f    13.8671f     9.0665f    13.8671f
  cgd       262.5231a   573.0104a   716.4927a   573.0104a   716.4927a



 subckt    xword2.xsr  xword2.xsr  xword3.xsr  xword3.xsr  xword3.xsr
 element  12:m5       12:m6       13:m1       13:m2       13:m3      
 model     0:nmos      0:nmos      0:nmos      0:pmos      0:nmos    
 region        Cutoff      Cutoff      Linear      Cutoff      Cutoff
  id          4.0229p  -769.2539f     6.5269u  -100.9277p   128.5284p
  ibs      -219.4965f  -668.5291f   3.609e-19  -4.728e-19   7.808e-19
  ibd      -678.4721f  -277.7143f    -5.7727f     1.8058p    -1.7541p
  vgs       -25.4629m  -474.4955m     1.7441    -55.9216m     4.2489m
  vds       449.0326m  -400.7575m     4.2489m    -1.7958      1.7441 
  vbs      -219.4396m  -668.4721m     0.          0.          0.     
  vth       529.9129m   542.3414m   469.9763m  -418.4994m   469.6339m
  vdsat      40.7985m    40.8890m   870.4331m   -41.8721m    40.2388m
  vod      -555.3758m    -1.0168      1.2741    362.5777m  -465.3850m
  beta        1.3841m     1.3625m     1.5854m   239.7319u     3.0086m
  gam eff   528.0000m   528.0000m   528.0000m   488.0000m   528.0000m
  gm        102.4983p    19.7581p     1.5536u     2.5118n     3.1387n
  gds       298.1574f    58.6688f     1.5326m    28.8786p    10.6051p
  gmb        34.4974p     6.6474p     2.2834u   759.8265p     1.1600n
  cdtot     502.2806a   594.9291a     9.5128f     1.0839f   871.5144a
  cgtot       1.9958f     1.9816f    13.2267f     4.9012f     4.2869f
  cstot     815.3950a   684.5815a     5.6545f     2.1896f     1.7243f
  cbtot       2.3632f     2.3392f     5.2795f     5.7841f     5.0224f
  cgs       276.7106a   198.4459a     6.5352f   752.6081a   574.7657a
  cgd       198.4459a   262.5231a     7.1649f   442.7674a   355.4583a



 subckt    xword3.xsr  xword3.xsr  xword3.xsr  xword3.xsr  xword3.xsr
 element  13:m4       13:m5       13:m6       14:m1       14:m2      
 model     0:pmos      0:nmos      0:nmos      0:nmos      0:pmos    
 region        Linear      Cutoff      Cutoff    Saturati    Saturati
  id        -12.1133u    -5.4368n  -791.0479f    47.4321u   -47.4404u
  ibs      -8.065e-19    -1.8001p    -1.7441p   7.702e-25  -5.905e-22
  ibd        64.7866f    -5.7731f  -279.0624f  -678.4721f     1.1415p
  vgs        -1.7958     -1.6060     -1.5501    668.4721m    -1.1315 
  vds       -55.9216m    -1.7958     -1.4750    668.4721m    -1.1315 
  vbs         0.         -1.8000     -1.7441      0.          0.     
  vth      -418.9556m   470.8497m   542.4740m   469.8455m  -418.6737m
  vdsat      -1.1298     40.3752m    40.8913m   183.4933m  -611.6309m
  vod        -1.3768     -2.0769     -2.0926    198.6266m  -712.8541m
  beta      166.6111u     1.4913m     1.3622m     2.7273m   214.3675u
  gam eff   488.0000m   528.0000m   528.0000m   528.0000m   488.0000m
  gm          4.4374u   128.2443n    20.3221p   381.4441u   107.5242u
  gds       211.0473u   458.4851p    58.0923f     1.8800u     1.5136u
  gmb         3.5080u    42.6413n     6.8362p   123.9620u    30.8998u
  cdtot      11.2955f   684.4497a   594.4240a     1.1825f     1.4212f
  cgtot      18.2396f     2.0235f     1.9603f    10.3674f    14.8367f
  cstot       7.9407f   587.2995a   590.3543a     7.5366f    10.3766f
  cbtot       5.9880f     2.2896f     2.2658f     4.6707f     5.0674f
  cgs         9.9934f   177.1841a   177.5094a     9.0665f    13.8671f
  cgd         8.6782f   325.9080a   262.1337a   573.0104a   716.4927a



 subckt    xword3.xsr  xword3.xsr  xword3.xsr  xword3.xsr  xword3.xsr
 element  14:m3       14:m4       14:m5       14:m6       15:m1      
 model     0:nmos      0:pmos      0:nmos      0:nmos      0:nmos    
 region      Saturati    Saturati      Cutoff      Cutoff    Saturati
  id         47.4321u   -47.4404u     4.0229p  -769.2539f    47.4321u
  ibs       7.702e-25  -5.905e-22  -219.4965f  -668.5291f   7.702e-25
  ibd      -678.4721f     1.1415p  -678.4721f  -277.7143f  -678.4721f
  vgs       668.4721m    -1.1315    -25.4629m  -474.4954m   668.4721m
  vds       668.4721m    -1.1315    449.0326m  -400.7575m   668.4721m
  vbs         0.          0.       -219.4396m  -668.4721m     0.     
  vth       469.8455m  -418.6737m   529.9129m   542.3414m   469.8455m
  vdsat     183.4933m  -611.6309m    40.7985m    40.8890m   183.4933m
  vod       198.6266m  -712.8541m  -555.3758m    -1.0168    198.6266m
  beta        2.7273m   214.3675u     1.3841m     1.3625m     2.7273m
  gam eff   528.0000m   488.0000m   528.0000m   528.0000m   528.0000m
  gm        381.4442u   107.5242u   102.4983p    19.7581p   381.4441u
  gds         1.8800u     1.5136u   298.1574f    58.6688f     1.8800u
  gmb       123.9621u    30.8998u    34.4974p     6.6474p   123.9620u
  cdtot       1.1825f     1.4212f   502.2806a   594.9291a     1.1825f
  cgtot      10.3674f    14.8367f     1.9958f     1.9816f    10.3674f
  cstot       7.5366f    10.3766f   815.3950a   684.5815a     7.5366f
  cbtot       4.6707f     5.0674f     2.3632f     2.3392f     4.6707f
  cgs         9.0665f    13.8671f   276.7106a   198.4459a     9.0665f
  cgd       573.0104a   716.4927a   198.4459a   262.5231a   573.0104a



 subckt    xword3.xsr  xword3.xsr  xword3.xsr  xword3.xsr  xword3.xsr
 element  15:m2       15:m3       15:m4       15:m5       15:m6      
 model     0:pmos      0:nmos      0:pmos      0:nmos      0:nmos    
 region      Saturati    Saturati    Saturati      Cutoff      Cutoff
  id        -47.4404u    47.4321u   -47.4404u     4.0229p  -769.2539f
  ibs      -5.905e-22   7.702e-25  -5.905e-22  -219.4965f  -668.5291f
  ibd         1.1415p  -678.4721f     1.1415p  -678.4721f  -277.7143f
  vgs        -1.1315    668.4721m    -1.1315    -25.4629m  -474.4954m
  vds        -1.1315    668.4721m    -1.1315    449.0326m  -400.7575m
  vbs         0.          0.          0.       -219.4396m  -668.4721m
  vth      -418.6737m   469.8455m  -418.6737m   529.9129m   542.3414m
  vdsat    -611.6309m   183.4933m  -611.6309m    40.7985m    40.8890m
  vod      -712.8541m   198.6266m  -712.8541m  -555.3758m    -1.0168 
  beta      214.3675u     2.7273m   214.3675u     1.3841m     1.3625m
  gam eff   488.0000m   528.0000m   488.0000m   528.0000m   528.0000m
  gm        107.5242u   381.4442u   107.5242u   102.4983p    19.7581p
  gds         1.5136u     1.8800u     1.5136u   298.1574f    58.6688f
  gmb        30.8998u   123.9621u    30.8998u    34.4974p     6.6474p
  cdtot       1.4212f     1.1825f     1.4212f   502.2806a   594.9291a
  cgtot      14.8367f    10.3674f    14.8367f     1.9958f     1.9816f
  cstot      10.3766f     7.5366f    10.3766f   815.3950a   684.5815a
  cbtot       5.0674f     4.6707f     5.0674f     2.3632f     2.3392f
  cgs        13.8671f     9.0665f    13.8671f   276.7106a   198.4459a
  cgd       716.4927a   573.0104a   716.4927a   198.4459a   262.5231a



 ******  
 * **************************************************

  ******  transient analysis tnom=  25.000 temp=  25.000 *****
x

        time      p_total  
                           
    0.           -2.0593m  
   10.00000p     -2.0498m  
   20.00000p     -2.0533m  
   30.00000p     -2.0513m  
   40.00000p     -2.0513m  
   50.00000p     -2.0530m  
   60.00000p     -2.0546m  
   70.00000p     -2.0467m  
   80.00000p     -2.0380m  
   90.00000p     -2.0385m  
  100.00000p     -2.0374m  
  110.00000p     -2.0313m  
  120.00000p     -2.0302m  
  130.00000p     -2.0338m  
  140.00000p     -2.0195m  
  150.00000p     -2.0103m  
  160.00000p     -2.0046m  
  170.00000p     -1.9853m  
  180.00000p     -1.9529m  
  190.00000p     -1.9160m  
  200.00000p     -1.8650m  
  210.00000p     -1.8262m  
  220.00000p     -1.7912m  
  230.00000p     -1.7623m  
  240.00000p     -1.7350m  
  250.00000p     -1.7084m  
  260.00000p     -1.8618m  
  270.00000p     -1.8706m  
  280.00000p     -1.8691m  
  290.00000p     -1.8654m  
  300.00000p     -1.8619m  
  310.00000p     -1.8592m  
  320.00000p     -1.8568m  
  330.00000p     -1.8552m  
  340.00000p     -1.8550m  
  350.00000p     -1.8547m  
  360.00000p     -1.8544m  
  370.00000p     -1.8555m  
  380.00000p     -1.8566m  
  390.00000p     -1.8578m  
  400.00000p     -1.8590m  
  410.00000p     -1.8612m  
  420.00000p     -1.8671m  
  430.00000p     -1.8730m  
  440.00000p     -1.8789m  
  450.00000p     -1.8848m  
  460.00000p     -1.8920m  
  470.00000p     -1.9060m  
  480.00000p     -1.9199m  
  490.00000p     -1.9339m  
  500.00000p     -1.9479m  
  510.00000p     -1.9580m  
  520.00000p     -1.9618m  
  530.00000p     -1.9657m  
  540.00000p     -1.9695m  
  550.00000p     -1.9715m  
  560.00000p     -1.9562m  
  570.00000p     -1.9376m  
  580.00000p     -1.9187m  
  590.00000p     -1.8998m  
  600.00000p     -1.8798m  
  610.00000p     -1.8599m  
  620.00000p     -1.8413m  
  630.00000p     -1.8242m  
  640.00000p     -1.8071m  
  650.00000p     -1.7900m  
  660.00000p     -1.7766m  
  670.00000p     -1.7657m  
  680.00000p     -1.7548m  
  690.00000p     -1.7439m  
  700.00000p     -1.7365m  
  710.00000p     -1.7293m  
  720.00000p     -1.7222m  
  730.00000p     -1.7150m  
  740.00000p     -1.7066m  
  750.00000p     -1.6978m  
  760.00000p     -1.6891m  
  770.00000p     -1.6804m  
  780.00000p     -1.6722m  
  790.00000p     -1.6653m  
  800.00000p     -1.6584m  
  810.00000p     -1.6515m  
  820.00000p     -1.6446m  
  830.00000p     -1.6377m  
  840.00000p     -1.6323m  
  850.00000p     -1.6270m  
  860.00000p     -1.6218m  
  870.00000p     -1.6165m  
  880.00000p     -1.6113m  
  890.00000p     -1.6060m  
  900.00000p     -1.6019m  
  910.00000p     -1.5987m  
  920.00000p     -1.5956m  
  930.00000p     -1.5924m  
  940.00000p     -1.5893m  
  950.00000p     -1.5862m  
  960.00000p     -1.5830m  
  970.00000p     -1.5802m  
  980.00000p     -1.5785m  
  990.00000p     -1.5768m  
    1.00000n     -1.5751m  
    1.01000n     -1.5734m  
    1.02000n     -1.5717m  
    1.03000n     -1.5700m  
    1.04000n     -1.5683m  
    1.05000n     -1.5698m  
    1.06000n     -1.5718m  
    1.07000n     -1.5738m  
    1.08000n     -1.5758m  
    1.09000n     -1.5778m  
    1.10000n     -1.5798m  
    1.11000n     -1.5818m  
    1.12000n     -1.5838m  
    1.13000n     -1.5985m  
    1.14000n     -1.6182m  
    1.15000n     -1.6380m  
    1.16000n     -1.6577m  
    1.17000n     -1.6775m  
    1.18000n     -1.6972m  
    1.19000n     -1.7172m  
    1.20000n     -1.7613m  
    1.21000n     -1.8054m  
    1.22000n     -1.8496m  
    1.23000n     -1.8937m  
    1.24000n     -1.9199m  
    1.25000n     -1.8631m  
    1.26000n     -1.8366m  
    1.27000n     -1.7533m  
    1.28000n     -1.6963m  
    1.29000n     -1.6597m  
    1.30000n     -1.6195m  
    1.31000n     -1.5612m  
    1.32000n     -1.5030m  
    1.33000n     -1.4649m  
    1.34000n     -1.4498m  
    1.35000n     -1.4348m  
    1.36000n     -1.4045m  
    1.37000n     -1.3695m  
    1.38000n     -1.3345m  
    1.39000n     -1.3227m  
    1.40000n     -1.3205m  
    1.41000n     -1.3183m  
    1.42000n     -1.3149m  
    1.43000n     -1.2893m  
    1.44000n     -1.2637m  
    1.45000n     -1.2380m  
    1.46000n     -1.2124m  
    1.47000n     -1.1928m  
    1.48000n     -1.1853m  
    1.49000n     -1.1778m  
    1.50000n     -1.1702m  
    1.51000n     -1.1627m  
    1.52000n     -1.1551m  
    1.53000n     -1.1438m  
    1.54000n     -1.1270m  
    1.55000n     -1.1102m  
    1.56000n     -1.0935m  
    1.57000n     -1.0767m  
    1.58000n     -1.0599m  
    1.59000n     -1.0469m  
    1.60000n     -1.0458m  
    1.61000n     -1.0447m  
    1.62000n     -1.0436m  
    1.63000n     -1.0425m  
    1.64000n     -1.0414m  
    1.65000n     -1.0404m  
    1.66000n     -1.0393m  
    1.67000n     -1.0301m  
    1.68000n     -1.0207m  
    1.69000n     -1.0112m  
    1.70000n     -1.0018m  
    1.71000n   -992.3506u  
    1.72000n   -982.9139u  
    1.73000n   -973.4772u  
    1.74000n   -973.6607u  
    1.75000n   -976.5029u  
    1.76000n   -979.3451u  
    1.77000n   -982.1873u  
    1.78000n   -985.0295u  
    1.79000n   -987.8717u  
    1.80000n   -990.7139u  
    1.81000n   -993.5561u  
    1.82000n   -990.8349u  
    1.83000n   -985.4172u  
    1.84000n   -979.9995u  
    1.85000n   -974.5818u  
    1.86000n   -969.1641u  
    1.87000n   -963.7464u  
    1.88000n   -958.3287u  
    1.89000n   -952.9110u  
    1.90000n   -947.4933u  
    1.91000n   -946.4987u  
    1.92000n   -949.6735u  
    1.93000n   -952.8482u  
    1.94000n   -956.0230u  
    1.95000n   -959.1977u  
    1.96000n   -962.3725u  
    1.97000n   -965.5473u  
    1.98000n   -968.7220u  
    1.99000n   -971.8968u  
    2.00000n   -975.0716u  
    2.01000n   -978.2463u  
    2.02000n   -978.6640u  
    2.03000n   -975.5813u  
    2.04000n   -972.4986u  
    2.05000n   -969.4158u  
    2.06000n   -966.3331u  
    2.07000n   -963.2504u  
    2.08000n   -960.1677u  
    2.09000n   -957.0849u  
    2.10000n   -954.0022u  
    2.11000n   -950.9195u  
    2.12000n   -947.8367u  
    2.13000n   -944.7540u  
    2.14000n   -941.6713u  
    2.15000n   -938.5885u  
    2.16000n   -939.4458u  
    2.17000n   -941.6111u  
    2.18000n   -943.7764u  
    2.19000n   -945.9417u  
    2.20000n   -948.1070u  
    2.21000n   -950.2723u  
    2.22000n   -952.4376u  
    2.23000n   -954.6029u  
    2.24000n   -956.7682u  
    2.25000n   -958.9335u  
    2.26000n   -961.0989u  
    2.27000n   -963.2642u  
    2.28000n   -965.4295u  
    2.29000n   -967.5948u  
    2.30000n   -969.7601u  
    2.31000n   -971.9254u  
    2.32000n   -974.0907u  
    2.33000n   -976.2560u  
    2.34000n   -976.4025u  
    2.35000n   -974.8015u  
    2.36000n   -973.2006u  
    2.37000n   -971.5997u  
    2.38000n   -969.9988u  
    2.39000n   -968.3979u  
    2.40000n   -966.7969u  
    2.41000n   -965.1960u  
    2.42000n   -963.5951u  
    2.43000n   -961.9942u  
    2.44000n   -960.3933u  
    2.45000n   -958.7923u  
    2.46000n   -957.1914u  
    2.47000n   -955.5905u  
    2.48000n   -953.9896u  
    2.49000n   -952.3887u  
    2.50000n   -950.7877u  
    2.51000n   -949.1868u  
    2.52000n   -947.5859u  
    2.53000n   -945.9850u  
    2.54000n   -944.3841u  
    2.55000n   -942.7831u  
    2.56000n   -941.1822u  
    2.57000n   -939.5813u  
    2.58000n   -937.9804u  
    2.59000n   -937.4880u  
    2.60000n   -938.5094u  
    2.61000n   -939.5307u  
    2.62000n   -940.5521u  
    2.63000n   -941.5735u  
    2.64000n   -942.5948u  
    2.65000n   -943.6162u  
    2.66000n   -944.6375u  
    2.67000n   -945.6589u  
    2.68000n   -946.6803u  
    2.69000n   -947.7016u  
    2.70000n   -948.7230u  
    2.71000n   -949.7444u  
    2.72000n   -950.7657u  
    2.73000n   -951.7871u  
    2.74000n   -952.8085u  
    2.75000n   -953.8298u  
    2.76000n   -954.8512u  
    2.77000n   -955.8726u  
    2.78000n   -956.8939u  
    2.79000n   -957.9153u  
    2.80000n   -958.9367u  
    2.81000n   -959.9580u  
    2.82000n   -960.9794u  
    2.83000n   -962.0008u  
    2.84000n   -963.0221u  
    2.85000n   -964.0435u  
    2.86000n   -965.0649u  
    2.87000n   -966.0862u  
    2.88000n   -967.1076u  
    2.89000n   -968.1290u  
    2.90000n   -969.1503u  
    2.91000n   -970.1717u  
    2.92000n   -971.1931u  
    2.93000n   -972.2144u  
    2.94000n   -973.2358u  
    2.95000n   -974.2571u  
    2.96000n   -975.2785u  
    2.97000n   -976.2999u  
    2.98000n   -977.0603u  
    2.99000n   -976.5044u  
    3.00000n   -975.9485u  
    3.01000n   -975.3926u  
    3.02000n   -974.8367u  
    3.03000n   -974.2809u  
    3.04000n   -973.7250u  
    3.05000n   -973.1691u  
    3.06000n   -972.6132u  
    3.07000n   -972.0573u  
    3.08000n   -971.5014u  
    3.09000n   -970.9455u  
    3.10000n   -970.3896u  
    3.11000n   -969.8338u  
    3.12000n   -969.2779u  
    3.13000n   -968.7220u  
    3.14000n   -968.1661u  
    3.15000n   -967.6102u  
    3.16000n   -967.0543u  
    3.17000n   -966.4984u  
    3.18000n   -965.9425u  
    3.19000n   -965.3867u  
    3.20000n   -964.8308u  
    3.21000n   -964.2749u  
    3.22000n   -963.7190u  
    3.23000n   -963.1631u  
    3.24000n   -962.6072u  
    3.25000n   -962.0513u  
    3.26000n   -961.4954u  
    3.27000n   -960.9396u  
    3.28000n   -960.3837u  
    3.29000n   -959.8278u  
    3.30000n   -959.2719u  
    3.31000n   -958.7160u  
    3.32000n   -958.1601u  
    3.33000n   -957.6042u  
    3.34000n   -957.0483u  
    3.35000n   -956.4925u  
    3.36000n   -955.9366u  
    3.37000n   -955.3807u  
    3.38000n   -954.8248u  
    3.39000n   -954.2689u  
    3.40000n   -953.7130u  
    3.41000n   -953.1571u  
    3.42000n   -952.6012u  
    3.43000n   -952.0454u  
    3.44000n   -951.4895u  
    3.45000n   -950.9336u  
    3.46000n   -950.3777u  
    3.47000n   -949.8218u  
    3.48000n   -949.2659u  
    3.49000n   -948.7100u  
    3.50000n   -948.1541u  
    3.51000n   -947.5983u  
    3.52000n   -947.0424u  
    3.53000n   -946.4865u  
    3.54000n   -945.9306u  
    3.55000n   -945.3747u  
    3.56000n   -944.8188u  
    3.57000n   -944.2629u  
    3.58000n   -943.7071u  
    3.59000n   -943.1512u  
    3.60000n   -942.5953u  
    3.61000n   -942.0394u  
    3.62000n   -941.4835u  
    3.63000n   -940.9276u  
    3.64000n   -940.3717u  
    3.65000n   -939.8158u  
    3.66000n   -939.2600u  
    3.67000n   -938.7041u  
    3.68000n   -938.1482u  
    3.69000n   -937.5923u  
    3.70000n   -937.0577u  
    3.71000n   -937.3426u  
    3.72000n   -937.6276u  
    3.73000n   -937.9125u  
    3.74000n   -938.1975u  
    3.75000n   -938.4824u  
    3.76000n   -938.7674u  
    3.77000n   -939.0523u  
    3.78000n   -939.3372u  
    3.79000n   -939.6222u  
    3.80000n   -939.9071u  
    3.81000n   -940.1921u  
    3.82000n   -940.4770u  
    3.83000n   -940.7620u  
    3.84000n   -941.0469u  
    3.85000n   -941.3319u  
    3.86000n   -941.6168u  
    3.87000n   -941.9018u  
    3.88000n   -942.1867u  
    3.89000n   -942.4716u  
    3.90000n   -942.7566u  
    3.91000n   -943.0415u  
    3.92000n   -943.3265u  
    3.93000n   -943.6114u  
    3.94000n   -943.8964u  
    3.95000n   -944.1813u  
    3.96000n   -944.4663u  
    3.97000n   -944.7512u  
    3.98000n   -945.0362u  
    3.99000n   -945.3211u  
    4.00000n   -945.6060u  
    4.01000n   -945.8910u  
    4.02000n   -946.1759u  
    4.03000n   -946.4609u  
    4.04000n   -946.7458u  
    4.05000n   -947.0308u  
    4.06000n   -947.3157u  
    4.07000n   -947.6007u  
    4.08000n   -947.8856u  
    4.09000n   -948.1706u  
    4.10000n   -948.4555u  
    4.11000n   -948.7404u  
    4.12000n   -949.0254u  
    4.13000n   -949.3103u  
    4.14000n   -949.5953u  
    4.15000n   -949.8802u  
    4.16000n   -950.1652u  
    4.17000n   -950.4501u  
    4.18000n   -950.7351u  
    4.19000n   -951.0200u  
    4.20000n   -951.3050u  
    4.21000n   -951.5899u  
    4.22000n   -951.8748u  
    4.23000n   -952.1598u  
    4.24000n   -952.4447u  
    4.25000n   -952.7297u  
    4.26000n   -953.0146u  
    4.27000n   -953.2996u  
    4.28000n   -953.5845u  
    4.29000n   -953.8695u  
    4.30000n   -954.1544u  
    4.31000n   -954.4394u  
    4.32000n   -954.7243u  
    4.33000n   -955.0092u  
    4.34000n   -955.2942u  
    4.35000n   -955.5791u  
    4.36000n   -955.8641u  
    4.37000n   -956.1490u  
    4.38000n   -956.4340u  
    4.39000n   -956.7189u  
    4.40000n   -957.0039u  
    4.41000n   -957.2888u  
    4.42000n   -957.5738u  
    4.43000n   -957.8587u  
    4.44000n   -958.1436u  
    4.45000n   -958.4286u  
    4.46000n   -958.7135u  
    4.47000n   -958.9985u  
    4.48000n   -959.2834u  
    4.49000n   -959.5684u  
    4.50000n   -959.8533u  
    4.51000n   -960.1383u  
    4.52000n   -960.4232u  
    4.53000n   -960.7082u  
    4.54000n   -960.9931u  
    4.55000n   -961.2781u  
    4.56000n   -961.5630u  
    4.57000n   -961.8479u  
    4.58000n   -962.1329u  
    4.59000n   -962.4178u  
    4.60000n   -962.7028u  
    4.61000n   -962.9877u  
    4.62000n   -963.2727u  
    4.63000n   -963.5576u  
    4.64000n   -963.8426u  
    4.65000n   -964.1275u  
    4.66000n   -964.4125u  
    4.67000n   -964.6974u  
    4.68000n   -964.9823u  
    4.69000n   -965.2673u  
    4.70000n   -965.5522u  
    4.71000n   -965.8372u  
    4.72000n   -966.1221u  
    4.73000n   -966.4071u  
    4.74000n   -966.6920u  
    4.75000n   -966.9770u  
    4.76000n   -967.2619u  
    4.77000n   -967.5469u  
    4.78000n   -967.8318u  
    4.79000n   -968.1167u  
    4.80000n   -968.4017u  
    4.81000n   -968.6866u  
    4.82000n   -968.9716u  
    4.83000n   -969.2565u  
    4.84000n   -969.5415u  
    4.85000n   -969.8264u  
    4.86000n   -970.1114u  
    4.87000n   -970.3963u  
    4.88000n   -970.6813u  
    4.89000n   -970.9662u  
    4.90000n   -971.2511u  
    4.91000n   -971.5361u  
    4.92000n   -971.8210u  
    4.93000n   -972.1060u  
    4.94000n   -972.3909u  
    4.95000n   -972.6759u  
    4.96000n   -972.9608u  
    4.97000n   -973.2458u  
    4.98000n   -973.5307u  
    4.99000n   -973.8157u  
    5.00000n   -974.1006u  
    5.01000n   -974.3855u  
    5.02000n   -974.6705u  
    5.03000n   -974.9554u  
    5.04000n   -975.2404u  
    5.05000n   -975.5253u  
    5.06000n   -975.8103u  
    5.07000n   -976.0952u  
    5.08000n   -976.3802u  
    5.09000n   -976.6651u  
    5.10000n   -976.9501u  
    5.11000n   -976.9535u  
    5.12000n   -976.4041u  
    5.13000n   -975.8546u  
    5.14000n   -975.3051u  
    5.15000n   -974.7556u  
    5.16000n   -974.2061u  
    5.17000n   -973.6566u  
    5.18000n   -973.1071u  
    5.19000n   -972.5576u  
    5.20000n   -972.0082u  
    5.21000n   -971.4587u  
    5.22000n   -970.9092u  
    5.23000n   -970.3597u  
    5.24000n   -969.8102u  
    5.25000n   -969.2607u  
    5.26000n   -968.7112u  
    5.27000n   -968.1617u  
    5.28000n   -967.6123u  
    5.29000n   -967.0628u  
    5.30000n   -966.5133u  
    5.31000n   -965.9638u  
    5.32000n   -965.4143u  
    5.33000n   -964.8648u  
    5.34000n   -964.3153u  
    5.35000n   -963.7658u  
    5.36000n   -963.2164u  
    5.37000n   -962.6669u  
    5.38000n   -962.1174u  
    5.39000n   -961.5679u  
    5.40000n   -961.0184u  
    5.41000n   -960.4689u  
    5.42000n   -959.9194u  
    5.43000n   -959.3699u  
    5.44000n   -958.8205u  
    5.45000n   -958.2710u  
    5.46000n   -957.7215u  
    5.47000n   -957.1720u  
    5.48000n   -957.0919u  
    5.49000n   -957.0918u  
    5.50000n   -957.0918u  
    5.51000n   -957.0917u  
    5.52000n   -957.0917u  
    5.53000n   -957.0917u  
    5.54000n   -957.0916u  
    5.55000n   -957.0916u  
    5.56000n   -957.0915u  
    5.57000n   -957.0915u  
    5.58000n   -957.0914u  
    5.59000n   -957.0914u  
    5.60000n   -957.0913u  
    5.61000n   -957.0913u  
    5.62000n   -957.0912u  
    5.63000n   -957.0912u  
    5.64000n   -957.0911u  
    5.65000n   -957.0911u  
    5.66000n   -957.0910u  
    5.67000n   -957.0910u  
    5.68000n   -957.0909u  
    5.69000n   -957.0909u  
    5.70000n   -957.0908u  
    5.71000n   -957.0908u  
    5.72000n   -957.0908u  
    5.73000n   -957.0907u  
    5.74000n   -957.0907u  
    5.75000n   -957.0906u  
    5.76000n   -957.0906u  
    5.77000n   -957.0905u  
    5.78000n   -957.0905u  
    5.79000n   -957.0904u  
    5.80000n   -957.0904u  
    5.81000n   -957.0903u  
    5.82000n   -957.0903u  
    5.83000n   -957.0902u  
    5.84000n   -957.0902u  
    5.85000n   -957.0901u  
    5.86000n   -957.0901u  
    5.87000n   -957.0900u  
    5.88000n   -957.0900u  
    5.89000n   -957.0899u  
    5.90000n   -957.0899u  
    5.91000n   -957.0899u  
    5.92000n   -957.0898u  
    5.93000n   -957.0898u  
    5.94000n   -957.0897u  
    5.95000n   -957.0897u  
    5.96000n   -957.0896u  
    5.97000n   -957.0896u  
    5.98000n   -957.0895u  
    5.99000n   -957.0895u  
    6.00000n   -957.0894u  
    6.01000n   -957.0894u  
    6.02000n   -957.0893u  
    6.03000n   -957.0893u  
    6.04000n   -957.0892u  
    6.05000n   -957.0892u  
    6.06000n   -957.0892u  
    6.07000n   -957.0892u  
    6.08000n   -957.0892u  
    6.09000n   -957.0892u  
    6.10000n   -957.0892u  
    6.11000n   -957.0892u  
    6.12000n   -957.0892u  
    6.13000n   -957.0892u  
    6.14000n   -957.0892u  
    6.15000n   -957.0892u  
    6.16000n   -957.0892u  
    6.17000n   -957.0892u  
    6.18000n   -957.0892u  
    6.19000n   -957.0892u  
    6.20000n   -957.0892u  
    6.21000n   -957.0892u  
    6.22000n   -957.0892u  
    6.23000n   -957.0892u  
    6.24000n   -957.0892u  
    6.25000n   -957.0893u  
    6.26000n   -957.0893u  
    6.27000n   -957.0893u  
    6.28000n   -957.0893u  
    6.29000n   -957.0893u  
    6.30000n   -957.0893u  
    6.31000n   -957.0893u  
    6.32000n   -957.0893u  
    6.33000n   -957.0893u  
    6.34000n   -957.0893u  
    6.35000n   -957.0893u  
    6.36000n   -957.0893u  
    6.37000n   -957.0893u  
    6.38000n   -957.0893u  
    6.39000n   -957.0893u  
    6.40000n   -957.0893u  
    6.41000n   -957.0893u  
    6.42000n   -957.0893u  
    6.43000n   -957.0893u  
    6.44000n   -957.0893u  
    6.45000n   -957.0893u  
    6.46000n   -957.0893u  
    6.47000n   -957.0893u  
    6.48000n   -957.0893u  
    6.49000n   -957.0893u  
    6.50000n   -957.0893u  
    6.51000n   -957.0893u  
    6.52000n   -957.0893u  
    6.53000n   -957.0893u  
    6.54000n   -957.0893u  
    6.55000n   -957.0893u  
    6.56000n   -957.0893u  
    6.57000n   -957.0893u  
    6.58000n   -957.0893u  
    6.59000n   -957.0893u  
    6.60000n   -957.0893u  
    6.61000n   -957.0893u  
    6.62000n   -957.0893u  
    6.63000n   -957.0893u  
    6.64000n   -957.0893u  
    6.65000n   -957.0893u  
    6.66000n   -957.0893u  
    6.67000n   -957.0893u  
    6.68000n   -957.0893u  
    6.69000n   -957.0893u  
    6.70000n   -957.0893u  
    6.71000n   -957.0894u  
    6.72000n   -957.0894u  
    6.73000n   -957.0894u  
    6.74000n   -957.0894u  
    6.75000n   -957.0894u  
    6.76000n   -957.0894u  
    6.77000n   -957.0894u  
    6.78000n   -957.0894u  
    6.79000n   -957.0894u  
    6.80000n   -957.0894u  
    6.81000n   -957.0894u  
    6.82000n   -957.0894u  
    6.83000n   -957.0894u  
    6.84000n   -957.0894u  
    6.85000n   -957.0894u  
    6.86000n   -957.0894u  
    6.87000n   -957.0894u  
    6.88000n   -957.0894u  
    6.89000n   -957.0894u  
    6.90000n   -957.0894u  
    6.91000n   -957.0894u  
    6.92000n   -957.0894u  
    6.93000n   -957.0894u  
    6.94000n   -957.0894u  
    6.95000n   -957.0894u  
    6.96000n   -957.0894u  
    6.97000n   -957.0894u  
    6.98000n   -957.0894u  
    6.99000n   -957.0894u  
    7.00000n   -957.0894u  
    7.01000n   -957.0894u  
    7.02000n   -957.0894u  
    7.03000n   -957.0894u  
    7.04000n   -957.0894u  
    7.05000n   -957.0894u  
    7.06000n   -957.0894u  
    7.07000n   -957.0894u  
    7.08000n   -957.0894u  
    7.09000n   -957.0894u  
    7.10000n   -957.0894u  
    7.11000n   -957.0894u  
    7.12000n   -957.0894u  
    7.13000n   -957.0894u  
    7.14000n   -957.0894u  
    7.15000n   -957.0894u  
    7.16000n   -957.0894u  
    7.17000n   -957.0894u  
    7.18000n   -957.0895u  
    7.19000n   -957.0895u  
    7.20000n   -957.0895u  
    7.21000n   -957.0895u  
    7.22000n   -957.0895u  
    7.23000n   -957.0895u  
    7.24000n   -957.0895u  
    7.25000n   -957.0895u  
    7.26000n   -957.0895u  
    7.27000n   -957.0895u  
    7.28000n   -957.0895u  
    7.29000n   -957.0895u  
    7.30000n   -957.0895u  
    7.31000n   -957.0895u  
    7.32000n   -957.0895u  
    7.33000n   -957.0895u  
    7.34000n   -957.0895u  
    7.35000n   -957.0895u  
    7.36000n   -957.0895u  
    7.37000n   -957.0895u  
    7.38000n   -957.0895u  
    7.39000n   -957.0895u  
    7.40000n   -957.0895u  
    7.41000n   -957.0895u  
    7.42000n   -957.0895u  
    7.43000n   -957.0895u  
    7.44000n   -957.0895u  
    7.45000n   -957.0895u  
    7.46000n   -957.0895u  
    7.47000n   -957.0895u  
    7.48000n   -957.0895u  
    7.49000n   -957.0895u  
    7.50000n   -957.0895u  
    7.51000n   -957.0895u  
    7.52000n   -957.0895u  
    7.53000n   -957.0895u  
    7.54000n   -957.0895u  
    7.55000n   -957.0895u  
    7.56000n   -957.0895u  
    7.57000n   -957.0895u  
    7.58000n   -957.0895u  
    7.59000n   -957.0895u  
    7.60000n   -957.0895u  
    7.61000n   -957.0895u  
    7.62000n   -957.0895u  
    7.63000n   -957.0895u  
    7.64000n   -957.0896u  
    7.65000n   -957.0896u  
    7.66000n   -957.0896u  
    7.67000n   -957.0896u  
    7.68000n   -957.0896u  
    7.69000n   -957.0896u  
    7.70000n   -957.0896u  
    7.71000n   -957.0896u  
    7.72000n   -957.0896u  
    7.73000n   -957.0896u  
    7.74000n   -957.0896u  
    7.75000n   -957.0896u  
    7.76000n   -957.0896u  
    7.77000n   -957.0896u  
    7.78000n   -957.0896u  
    7.79000n   -957.0896u  
    7.80000n   -957.0896u  
    7.81000n   -957.0896u  
    7.82000n   -957.0895u  
    7.83000n   -957.0895u  
    7.84000n   -957.0895u  
    7.85000n   -957.0895u  
    7.86000n   -957.0895u  
    7.87000n   -957.0895u  
    7.88000n   -957.0894u  
    7.89000n   -957.0894u  
    7.90000n   -957.0894u  
    7.91000n   -957.0894u  
    7.92000n   -957.0894u  
    7.93000n   -957.0894u  
    7.94000n   -957.0894u  
    7.95000n   -957.0893u  
    7.96000n   -957.0893u  
    7.97000n   -957.0893u  
    7.98000n   -957.0893u  
    7.99000n   -957.0893u  
    8.00000n   -957.0893u  
    8.01000n   -957.0892u  
    8.02000n   -957.0892u  
    8.03000n   -957.0892u  
    8.04000n   -957.0892u  
    8.05000n   -957.0892u  
    8.06000n   -957.0892u  
    8.07000n   -957.0892u  
    8.08000n   -957.0891u  
    8.09000n   -957.0891u  
    8.10000n   -957.0891u  
    8.11000n   -957.0891u  
    8.12000n   -957.0891u  
    8.13000n   -957.0891u  
    8.14000n   -957.0890u  
    8.15000n   -957.0890u  
    8.16000n   -957.0890u  
    8.17000n   -957.0890u  
    8.18000n   -957.0890u  
    8.19000n   -957.0890u  
    8.20000n   -957.0890u  
    8.21000n   -957.0889u  
    8.22000n   -957.0889u  
    8.23000n   -957.0889u  
    8.24000n   -957.0889u  
    8.25000n   -957.0889u  
    8.26000n   -957.0889u  
    8.27000n   -957.0888u  
    8.28000n   -957.0888u  
    8.29000n   -957.0888u  
    8.30000n   -957.0888u  
    8.31000n   -957.0888u  
    8.32000n   -957.0888u  
    8.33000n   -957.0888u  
    8.34000n   -957.0887u  
    8.35000n   -957.0887u  
    8.36000n   -957.0887u  
    8.37000n   -957.0887u  
    8.38000n   -957.0887u  
    8.39000n   -957.0887u  
    8.40000n   -957.0887u  
    8.41000n   -957.0886u  
    8.42000n   -957.0886u  
    8.43000n   -957.0886u  
    8.44000n   -957.0886u  
    8.45000n   -957.0886u  
    8.46000n   -957.0886u  
    8.47000n   -957.0885u  
    8.48000n   -957.0885u  
    8.49000n   -957.0885u  
    8.50000n   -957.0885u  
    8.51000n   -957.0885u  
    8.52000n   -957.0885u  
    8.53000n   -957.0885u  
    8.54000n   -957.0884u  
    8.55000n   -957.0884u  
    8.56000n   -957.0884u  
    8.57000n   -957.0884u  
    8.58000n   -957.0884u  
    8.59000n   -957.0884u  
    8.60000n   -957.0883u  
    8.61000n   -957.0883u  
    8.62000n   -957.0883u  
    8.63000n   -957.0883u  
    8.64000n   -957.0883u  
    8.65000n   -957.0883u  
    8.66000n   -957.0883u  
    8.67000n   -957.0882u  
    8.68000n   -957.0882u  
    8.69000n   -957.0882u  
    8.70000n   -957.0882u  
    8.71000n   -957.0882u  
    8.72000n   -957.0882u  
    8.73000n   -957.0881u  
    8.74000n   -957.0881u  
    8.75000n   -957.0881u  
    8.76000n   -957.0881u  
    8.77000n   -957.0881u  
    8.78000n   -957.0881u  
    8.79000n   -957.0881u  
    8.80000n   -957.0880u  
    8.81000n   -957.0880u  
    8.82000n   -957.0880u  
    8.83000n   -957.0880u  
    8.84000n   -957.0880u  
    8.85000n   -957.0880u  
    8.86000n   -957.0879u  
    8.87000n   -957.0879u  
    8.88000n   -957.0879u  
    8.89000n   -957.0879u  
    8.90000n   -957.0879u  
    8.91000n   -957.0879u  
    8.92000n   -957.0879u  
    8.93000n   -957.0878u  
    8.94000n   -957.0878u  
    8.95000n   -957.0878u  
    8.96000n   -957.0878u  
    8.97000n   -957.0878u  
    8.98000n   -957.0878u  
    8.99000n   -957.0877u  
    9.00000n   -957.0877u  
    9.01000n   -957.0877u  
    9.02000n   -957.0877u  
    9.03000n   -957.0877u  
    9.04000n   -957.0877u  
    9.05000n   -957.0877u  
    9.06000n   -957.0876u  
    9.07000n   -957.0876u  
    9.08000n   -957.0876u  
    9.09000n   -957.0876u  
    9.10000n   -957.0876u  
    9.11000n   -957.0876u  
    9.12000n   -957.0875u  
    9.13000n   -957.0875u  
    9.14000n   -957.0875u  
    9.15000n   -957.0875u  
    9.16000n   -957.0875u  
    9.17000n   -957.0875u  
    9.18000n   -957.0875u  
    9.19000n   -957.0874u  
    9.20000n   -957.0874u  
    9.21000n   -957.0874u  
    9.22000n   -957.0874u  
    9.23000n   -957.0874u  
    9.24000n   -957.0874u  
    9.25000n   -957.0873u  
    9.26000n   -957.0873u  
    9.27000n   -957.0873u  
    9.28000n   -957.0873u  
    9.29000n   -957.0873u  
    9.30000n   -957.0873u  
    9.31000n   -957.0873u  
    9.32000n   -957.0872u  
    9.33000n   -957.0872u  
    9.34000n   -957.0872u  
    9.35000n   -957.0872u  
    9.36000n   -957.0872u  
    9.37000n   -957.0872u  
    9.38000n   -957.0871u  
    9.39000n   -957.0871u  
    9.40000n   -957.0871u  
    9.41000n   -957.0871u  
    9.42000n   -957.0871u  
    9.43000n   -957.0871u  
    9.44000n   -957.0871u  
    9.45000n   -957.0870u  
    9.46000n   -957.0870u  
    9.47000n   -957.0870u  
    9.48000n   -957.0870u  
    9.49000n   -957.0870u  
    9.50000n   -957.0870u  
    9.51000n   -957.0869u  
    9.52000n   -957.0869u  
    9.53000n   -957.0869u  
    9.54000n   -957.0869u  
    9.55000n   -957.0869u  
    9.56000n   -957.0869u  
    9.57000n   -957.0869u  
    9.58000n   -957.0868u  
    9.59000n   -957.0868u  
    9.60000n   -957.0868u  
    9.61000n   -957.0868u  
    9.62000n   -957.0868u  
    9.63000n   -957.0868u  
    9.64000n   -957.0868u  
    9.65000n   -957.0867u  
    9.66000n   -957.0867u  
    9.67000n   -957.0867u  
    9.68000n   -957.0867u  
    9.69000n   -957.0867u  
    9.70000n   -957.0867u  
    9.71000n   -957.0866u  
    9.72000n   -957.0866u  
    9.73000n   -957.0866u  
    9.74000n   -957.0866u  
    9.75000n   -957.0866u  
    9.76000n   -957.0866u  
    9.77000n   -957.0866u  
    9.78000n   -957.0865u  
    9.79000n   -957.0865u  
    9.80000n   -957.0865u  
    9.81000n   -957.0865u  
    9.82000n   -957.0865u  
    9.83000n   -957.0865u  
    9.84000n   -957.0864u  
    9.85000n   -957.0864u  
    9.86000n   -957.0864u  
    9.87000n   -957.0864u  
    9.88000n   -957.0864u  
    9.89000n   -957.0864u  
    9.90000n   -957.0864u  
    9.91000n   -957.0863u  
    9.92000n   -957.0863u  
    9.93000n   -957.0863u  
    9.94000n   -957.0863u  
    9.95000n   -957.0863u  
    9.96000n   -957.0863u  
    9.97000n   -957.0862u  
    9.98000n   -957.0862u  
    9.99000n   -957.0862u  
   10.00000n   -957.0862u  
   10.01000n   -957.0862u  
   10.02000n   -957.0862u  
   10.03000n   -957.0862u  
   10.04000n   -957.0861u  
   10.05000n   -957.0861u  
   10.06000n   -957.0861u  
   10.07000n   -957.0861u  
   10.08000n   -957.0861u  
   10.09000n   -957.0861u  
   10.10000n   -957.0860u  
   10.11000n   -957.0860u  
   10.12000n   -957.0860u  
   10.13000n   -957.0860u  
   10.14000n   -957.0860u  
   10.15000n   -957.0860u  
   10.16000n   -957.0860u  
   10.17000n   -957.0859u  
   10.18000n   -957.0859u  
   10.19000n   -957.0859u  
   10.20000n   -957.0859u  
   10.21000n   -957.0859u  
   10.22000n   -957.0859u  
   10.23000n   -957.0858u  
   10.24000n   -957.0858u  
   10.25000n   -957.0858u  
   10.26000n   -957.0858u  
   10.27000n   -957.0858u  
   10.28000n   -957.0859u  
   10.29000n   -957.0859u  
   10.30000n   -957.0859u  
   10.31000n   -957.0859u  
   10.32000n   -957.0859u  
   10.33000n   -957.0859u  
   10.34000n   -957.0859u  
   10.35000n   -957.0859u  
   10.36000n   -957.0859u  
   10.37000n   -957.0859u  
   10.38000n   -957.0859u  
   10.39000n   -957.0859u  
   10.40000n   -957.0859u  
   10.41000n   -957.0859u  
   10.42000n   -957.0859u  
   10.43000n   -957.0859u  
   10.44000n   -957.0860u  
   10.45000n   -957.0860u  
   10.46000n   -957.0860u  
   10.47000n   -957.0860u  
   10.48000n   -957.0860u  
   10.49000n   -957.0860u  
   10.50000n   -957.0860u  
   10.51000n   -957.0860u  
   10.52000n   -957.0860u  
   10.53000n   -957.0860u  
   10.54000n   -957.0860u  
   10.55000n   -957.0860u  
   10.56000n   -957.0860u  
   10.57000n   -957.0860u  
   10.58000n   -957.0860u  
   10.59000n   -957.0860u  
   10.60000n   -957.0860u  
   10.61000n   -957.0861u  
   10.62000n   -957.0861u  
   10.63000n   -957.0861u  
   10.64000n   -957.0861u  
   10.65000n   -957.0861u  
   10.66000n   -957.0861u  
   10.67000n   -957.0861u  
   10.68000n   -957.0861u  
   10.69000n   -957.0861u  
   10.70000n   -957.0861u  
   10.71000n   -957.0861u  
   10.72000n   -957.0861u  
   10.73000n   -957.0861u  
   10.74000n   -957.0861u  
   10.75000n   -957.0861u  
   10.76000n   -957.0861u  
   10.77000n   -957.0862u  
   10.78000n   -957.0862u  
   10.79000n   -957.0862u  
   10.80000n   -957.0862u  
   10.81000n   -957.0862u  
   10.82000n   -957.0862u  
   10.83000n   -957.0862u  
   10.84000n   -957.0862u  
   10.85000n   -957.0862u  
   10.86000n   -957.0862u  
   10.87000n   -957.0862u  
   10.88000n   -957.0862u  
   10.89000n   -957.0862u  
   10.90000n   -957.0862u  
   10.91000n   -957.0862u  
   10.92000n   -957.0862u  
   10.93000n   -957.0862u  
   10.94000n   -957.0863u  
   10.95000n   -957.0863u  
   10.96000n   -957.0863u  
   10.97000n   -957.0863u  
   10.98000n   -957.0863u  
   10.99000n   -957.0863u  
   11.00000n   -957.0863u  
   11.01000n   -957.0863u  
   11.02000n   -957.0863u  
   11.03000n   -957.0863u  
   11.04000n   -957.0863u  
   11.05000n   -957.0863u  
   11.06000n   -957.0863u  
   11.07000n   -957.0863u  
   11.08000n   -957.0863u  
   11.09000n   -957.0863u  
   11.10000n   -957.0863u  
   11.11000n   -957.0864u  
   11.12000n   -957.0864u  
   11.13000n   -957.0864u  
   11.14000n   -957.0864u  
   11.15000n   -957.0864u  
   11.16000n   -957.0864u  
   11.17000n   -957.0864u  
   11.18000n   -957.0864u  
   11.19000n   -957.0864u  
   11.20000n   -957.0864u  
   11.21000n   -957.0864u  
   11.22000n   -957.0864u  
   11.23000n   -957.0864u  
   11.24000n   -957.0864u  
   11.25000n   -957.0864u  
   11.26000n   -957.0864u  
   11.27000n   -957.0865u  
   11.28000n   -957.0865u  
   11.29000n   -957.0865u  
   11.30000n   -957.0865u  
   11.31000n   -957.0865u  
   11.32000n   -957.0865u  
   11.33000n   -957.0865u  
   11.34000n   -957.0865u  
   11.35000n   -957.0865u  
   11.36000n   -957.0865u  
   11.37000n   -957.0865u  
   11.38000n   -957.0865u  
   11.39000n   -957.0865u  
   11.40000n   -957.0865u  
   11.41000n   -957.0865u  
   11.42000n   -957.0865u  
   11.43000n   -957.0865u  
   11.44000n   -957.0866u  
   11.45000n   -957.0866u  
   11.46000n   -957.0866u  
   11.47000n   -957.0866u  
   11.48000n   -957.0866u  
   11.49000n   -957.0866u  
   11.50000n   -957.0866u  
   11.51000n   -957.0866u  
   11.52000n   -957.0866u  
   11.53000n   -957.0866u  
   11.54000n   -957.0866u  
   11.55000n   -957.0866u  
   11.56000n   -957.0866u  
   11.57000n   -957.0866u  
   11.58000n   -957.0866u  
   11.59000n   -957.0866u  
   11.60000n   -957.0867u  
   11.61000n   -957.0867u  
   11.62000n   -957.0867u  
   11.63000n   -957.0867u  
   11.64000n   -957.0867u  
   11.65000n   -957.0867u  
   11.66000n   -957.0867u  
   11.67000n   -957.0867u  
   11.68000n   -957.0867u  
   11.69000n   -957.0867u  
   11.70000n   -957.0867u  
   11.71000n   -957.0867u  
   11.72000n   -957.0867u  
   11.73000n   -957.0867u  
   11.74000n   -957.0867u  
   11.75000n   -957.0867u  
   11.76000n   -957.0867u  
   11.77000n   -957.0868u  
   11.78000n   -957.0868u  
   11.79000n   -957.0868u  
   11.80000n   -957.0868u  
   11.81000n   -957.0868u  
   11.82000n   -957.0868u  
   11.83000n   -957.0868u  
   11.84000n   -957.0868u  
   11.85000n   -957.0868u  
   11.86000n   -957.0868u  
   11.87000n   -957.0868u  
   11.88000n   -957.0868u  
   11.89000n   -957.0868u  
   11.90000n   -957.0868u  
   11.91000n   -957.0868u  
   11.92000n   -957.0868u  
   11.93000n   -957.0868u  
   11.94000n   -957.0869u  
   11.95000n   -957.0869u  
   11.96000n   -957.0869u  
   11.97000n   -957.0869u  
   11.98000n   -957.0869u  
   11.99000n   -957.0869u  
   12.00000n   -957.0869u  
   12.01000n   -957.0869u  
   12.02000n   -957.0869u  
   12.03000n   -957.0869u  
   12.04000n   -957.0869u  
   12.05000n   -957.0869u  
   12.06000n   -957.0869u  
   12.07000n   -957.0869u  
   12.08000n   -957.0869u  
   12.09000n   -957.0869u  
   12.10000n   -957.0870u  
   12.11000n   -957.0870u  
   12.12000n   -957.0870u  
   12.13000n   -957.0870u  
   12.14000n   -957.0870u  
   12.15000n   -957.0870u  
   12.16000n   -957.0870u  
   12.17000n   -957.0870u  
   12.18000n   -957.0870u  
   12.19000n   -957.0870u  
   12.20000n   -957.0870u  
   12.21000n   -957.0870u  
   12.22000n   -957.0870u  
   12.23000n   -957.0870u  
   12.24000n   -957.0870u  
   12.25000n   -957.0870u  
   12.26000n   -957.0870u  
   12.27000n   -957.0871u  
   12.28000n   -957.0871u  
   12.29000n   -957.0871u  
   12.30000n   -957.0871u  
   12.31000n   -957.0871u  
   12.32000n   -957.0871u  
   12.33000n   -957.0871u  
   12.34000n   -957.0871u  
   12.35000n   -957.0871u  
   12.36000n   -957.0871u  
   12.37000n   -957.0871u  
   12.38000n   -957.0871u  
   12.39000n   -957.0871u  
   12.40000n   -957.0871u  
   12.41000n   -957.0871u  
   12.42000n   -957.0871u  
   12.43000n   -957.0872u  
   12.44000n   -957.0872u  
   12.45000n   -957.0872u  
   12.46000n   -957.0872u  
   12.47000n   -957.0872u  
   12.48000n   -957.0872u  
   12.49000n   -957.0872u  
   12.50000n   -957.0872u  
   12.51000n   -957.0872u  
   12.52000n   -957.0872u  
   12.53000n   -957.0872u  
   12.54000n   -957.0872u  
   12.55000n   -957.0872u  
   12.56000n   -957.0872u  
   12.57000n   -957.0872u  
   12.58000n   -957.0872u  
   12.59000n   -957.0872u  
   12.60000n   -957.0873u  
   12.61000n   -957.0873u  
   12.62000n   -957.0873u  
   12.63000n   -957.0873u  
   12.64000n   -957.0873u  
   12.65000n   -957.0873u  
   12.66000n   -957.0873u  
   12.67000n   -957.0873u  
   12.68000n   -957.0873u  
   12.69000n   -957.0873u  
   12.70000n   -957.0873u  
   12.71000n   -957.0873u  
   12.72000n   -957.0873u  
   12.73000n   -957.0873u  
   12.74000n   -957.0873u  
   12.75000n   -957.0873u  
   12.76000n   -957.0874u  
   12.77000n   -957.0874u  
   12.78000n   -957.0874u  
   12.79000n   -957.0874u  
   12.80000n   -957.0874u  
   12.81000n   -957.0874u  
   12.82000n   -957.0874u  
   12.83000n   -957.0873u  
   12.84000n   -957.0873u  
   12.85000n   -957.0873u  
   12.86000n   -957.0873u  
   12.87000n   -957.0873u  
   12.88000n   -957.0873u  
   12.89000n   -957.0873u  
   12.90000n   -957.0873u  
   12.91000n   -957.0873u  
   12.92000n   -957.0873u  
   12.93000n   -957.0873u  
   12.94000n   -957.0872u  
   12.95000n   -957.0872u  
   12.96000n   -957.0872u  
   12.97000n   -957.0872u  
   12.98000n   -957.0872u  
   12.99000n   -957.0872u  
   13.00000n   -957.0872u  
   13.01000n   -957.0872u  
   13.02000n   -957.0872u  
   13.03000n   -957.0872u  
   13.04000n   -957.0872u  
   13.05000n   -957.0871u  
   13.06000n   -957.0871u  
   13.07000n   -957.0871u  
   13.08000n   -957.0871u  
   13.09000n   -957.0871u  
   13.10000n   -957.0871u  
   13.11000n   -957.0871u  
   13.12000n   -957.0871u  
   13.13000n   -957.0871u  
   13.14000n   -957.0871u  
   13.15000n   -957.0870u  
   13.16000n   -957.0870u  
   13.17000n   -957.0870u  
   13.18000n   -957.0870u  
   13.19000n   -957.0870u  
   13.20000n   -957.0870u  
   13.21000n   -957.0870u  
   13.22000n   -957.0870u  
   13.23000n   -957.0870u  
   13.24000n   -957.0870u  
   13.25000n   -957.0870u  
   13.26000n   -957.0869u  
   13.27000n   -957.0869u  
   13.28000n   -957.0869u  
   13.29000n   -957.0869u  
   13.30000n   -957.0869u  
   13.31000n   -957.0869u  
   13.32000n   -957.0869u  
   13.33000n   -957.0869u  
   13.34000n   -957.0869u  
   13.35000n   -957.0869u  
   13.36000n   -957.0869u  
   13.37000n   -957.0868u  
   13.38000n   -957.0868u  
   13.39000n   -957.0868u  
   13.40000n   -957.0868u  
   13.41000n   -957.0868u  
   13.42000n   -957.0868u  
   13.43000n   -957.0868u  
   13.44000n   -957.0868u  
   13.45000n   -957.0868u  
   13.46000n   -957.0868u  
   13.47000n   -957.0868u  
   13.48000n   -957.0867u  
   13.49000n   -957.0867u  
   13.50000n   -957.0867u  
   13.51000n   -957.0867u  
   13.52000n   -957.0867u  
   13.53000n   -957.0867u  
   13.54000n   -957.0867u  
   13.55000n   -957.0867u  
   13.56000n   -957.0867u  
   13.57000n   -957.0867u  
   13.58000n   -957.0866u  
   13.59000n   -957.0866u  
   13.60000n   -957.0866u  
   13.61000n   -957.0866u  
   13.62000n   -957.0866u  
   13.63000n   -957.0866u  
   13.64000n   -957.0866u  
   13.65000n   -957.0866u  
   13.66000n   -957.0866u  
   13.67000n   -957.0866u  
   13.68000n   -957.0866u  
   13.69000n   -957.0865u  
   13.70000n   -957.0865u  
   13.71000n   -957.0865u  
   13.72000n   -957.0865u  
   13.73000n   -957.0865u  
   13.74000n   -957.0865u  
   13.75000n   -957.0865u  
   13.76000n   -957.0865u  
   13.77000n   -957.0865u  
   13.78000n   -957.0865u  
   13.79000n   -957.0865u  
   13.80000n   -957.0864u  
   13.81000n   -957.0864u  
   13.82000n   -957.0864u  
   13.83000n   -957.0864u  
   13.84000n   -957.0864u  
   13.85000n   -957.0864u  
   13.86000n   -957.0864u  
   13.87000n   -957.0864u  
   13.88000n   -957.0864u  
   13.89000n   -957.0864u  
   13.90000n   -957.0863u  
   13.91000n   -957.0863u  
   13.92000n   -957.0863u  
   13.93000n   -957.0863u  
   13.94000n   -957.0863u  
   13.95000n   -957.0863u  
   13.96000n   -957.0863u  
   13.97000n   -957.0863u  
   13.98000n   -957.0863u  
   13.99000n   -957.0863u  
   14.00000n   -957.0863u  
   14.01000n   -957.0862u  
   14.02000n   -957.0862u  
   14.03000n   -957.0862u  
   14.04000n   -957.0862u  
   14.05000n   -957.0862u  
   14.06000n   -957.0862u  
   14.07000n   -957.0862u  
   14.08000n   -957.0862u  
   14.09000n   -957.0862u  
   14.10000n   -957.0862u  
   14.11000n   -957.0862u  
   14.12000n   -957.0861u  
   14.13000n   -957.0861u  
   14.14000n   -957.0861u  
   14.15000n   -957.0861u  
   14.16000n   -957.0861u  
   14.17000n   -957.0861u  
   14.18000n   -957.0861u  
   14.19000n   -957.0861u  
   14.20000n   -957.0861u  
   14.21000n   -957.0861u  
   14.22000n   -957.0861u  
   14.23000n   -957.0860u  
   14.24000n   -957.0860u  
   14.25000n   -957.0860u  
   14.26000n   -957.0860u  
   14.27000n   -957.0860u  
   14.28000n   -957.0860u  
   14.29000n   -957.0860u  
   14.30000n   -957.0860u  
   14.31000n   -957.0860u  
   14.32000n   -957.0860u  
   14.33000n   -957.0859u  
   14.34000n   -957.0859u  
   14.35000n   -957.0859u  
   14.36000n   -957.0859u  
   14.37000n   -957.0859u  
   14.38000n   -957.0859u  
   14.39000n   -957.0859u  
   14.40000n   -957.0859u  
   14.41000n   -957.0859u  
   14.42000n   -957.0859u  
   14.43000n   -957.0859u  
   14.44000n   -957.0858u  
   14.45000n   -957.0858u  
   14.46000n   -957.0858u  
   14.47000n   -957.0858u  
   14.48000n   -957.0858u  
   14.49000n   -957.0858u  
   14.50000n   -957.0858u  
   14.51000n   -957.0858u  
   14.52000n   -957.0858u  
   14.53000n   -957.0858u  
   14.54000n   -957.0858u  
   14.55000n   -957.0857u  
   14.56000n   -957.0857u  
   14.57000n   -957.0857u  
   14.58000n   -957.0857u  
   14.59000n   -957.0857u  
   14.60000n   -957.0857u  
   14.61000n   -957.0857u  
   14.62000n   -957.0857u  
   14.63000n   -957.0857u  
   14.64000n   -957.0857u  
   14.65000n   -957.0856u  
   14.66000n   -957.0856u  
   14.67000n   -957.0856u  
   14.68000n   -957.0856u  
   14.69000n   -957.0856u  
   14.70000n   -957.0856u  
   14.71000n   -957.0856u  
   14.72000n   -957.0856u  
   14.73000n   -957.0856u  
   14.74000n   -957.0856u  
   14.75000n   -957.0856u  
   14.76000n   -957.0855u  
   14.77000n   -957.0855u  
   14.78000n   -957.0855u  
   14.79000n   -957.0855u  
   14.80000n   -957.0855u  
   14.81000n   -957.0855u  
   14.82000n   -957.0855u  
   14.83000n   -957.0855u  
   14.84000n   -957.0855u  
   14.85000n   -957.0855u  
   14.86000n   -957.0855u  
   14.87000n   -957.0854u  
   14.88000n   -957.0854u  
   14.89000n   -957.0854u  
   14.90000n   -957.0854u  
   14.91000n   -957.0854u  
   14.92000n   -957.0854u  
   14.93000n   -957.0854u  
   14.94000n   -957.0854u  
   14.95000n   -957.0854u  
   14.96000n   -957.0854u  
   14.97000n   -957.0854u  
   14.98000n   -957.0853u  
   14.99000n   -957.0853u  
   15.00000n   -957.0853u  
   15.01000n   -957.0853u  
   15.02000n   -957.0853u  
   15.03000n   -957.0853u  
   15.04000n   -957.0853u  
   15.05000n   -957.0853u  
   15.06000n   -957.0853u  
   15.07000n   -957.0853u  
   15.08000n   -957.0852u  
   15.09000n   -957.0852u  
   15.10000n   -957.0852u  
   15.11000n   -957.0852u  
   15.12000n   -957.0852u  
   15.13000n   -957.0852u  
   15.14000n   -957.0852u  
   15.15000n   -957.0852u  
   15.16000n   -957.0852u  
   15.17000n   -957.0852u  
   15.18000n   -957.0852u  
   15.19000n   -957.0851u  
   15.20000n   -957.0851u  
   15.21000n   -957.0851u  
   15.22000n   -957.0851u  
   15.23000n   -957.0851u  
   15.24000n   -957.0851u  
   15.25000n   -957.0851u  
   15.26000n   -957.0851u  
   15.27000n   -957.0851u  
   15.28000n   -957.0851u  
   15.29000n   -957.0851u  
   15.30000n   -957.0850u  
   15.31000n   -957.0850u  
   15.32000n   -957.0850u  
   15.33000n   -957.0850u  
   15.34000n   -957.0850u  
   15.35000n   -957.0850u  
   15.36000n   -957.0850u  
   15.37000n   -957.0850u  
   15.38000n   -957.0850u  
   15.39000n   -957.0850u  
   15.40000n   -957.0849u  
   15.41000n   -957.0849u  
   15.42000n   -957.0849u  
   15.43000n   -957.0849u  
   15.44000n   -957.0849u  
   15.45000n   -957.0849u  
   15.46000n   -957.0849u  
   15.47000n   -957.0849u  
   15.48000n   -957.0849u  
   15.49000n   -957.0849u  
   15.50000n   -957.0849u  
   15.51000n   -957.0848u  
   15.52000n   -957.0848u  
   15.53000n   -957.0848u  
   15.54000n   -957.0848u  
   15.55000n   -957.0848u  
   15.56000n   -957.0848u  
   15.57000n   -957.0848u  
   15.58000n   -957.0848u  
   15.59000n   -957.0848u  
   15.60000n   -957.0848u  
   15.61000n   -957.0848u  
   15.62000n   -957.0847u  
   15.63000n   -957.0847u  
   15.64000n   -957.0847u  
   15.65000n   -957.0847u  
   15.66000n   -957.0847u  
   15.67000n   -957.0847u  
   15.68000n   -957.0847u  
   15.69000n   -957.0847u  
   15.70000n   -957.0847u  
   15.71000n   -957.0847u  
   15.72000n   -957.0847u  
   15.73000n   -957.0846u  
   15.74000n   -957.0846u  
   15.75000n   -957.0846u  
   15.76000n   -957.0846u  
   15.77000n   -957.0847u  
   15.78000n   -957.0847u  
   15.79000n   -957.0847u  
   15.80000n   -957.0847u  
   15.81000n   -957.0847u  
   15.82000n   -957.0847u  
   15.83000n   -957.0847u  
   15.84000n   -957.0847u  
   15.85000n   -957.0847u  
   15.86000n   -957.0847u  
   15.87000n   -957.0847u  
   15.88000n   -957.0847u  
   15.89000n   -957.0847u  
   15.90000n   -957.0847u  
   15.91000n   -957.0847u  
   15.92000n   -957.0848u  
   15.93000n   -957.0848u  
   15.94000n   -957.0848u  
   15.95000n   -957.0848u  
   15.96000n   -957.0848u  
   15.97000n   -957.0848u  
   15.98000n   -957.0848u  
   15.99000n   -957.0848u  
   16.00000n   -957.0848u  
   16.01000n   -957.0848u  
   16.02000n   -957.0848u  
   16.03000n   -957.0848u  
   16.04000n   -957.0848u  
   16.05000n   -957.0848u  
   16.06000n   -957.0848u  
   16.07000n   -957.0848u  
   16.08000n   -957.0849u  
   16.09000n   -957.0849u  
   16.10000n   -957.0849u  
   16.11000n   -957.0849u  
   16.12000n   -957.0849u  
   16.13000n   -957.0849u  
   16.14000n   -957.0849u  
   16.15000n   -957.0849u  
   16.16000n   -957.0849u  
   16.17000n   -957.0849u  
   16.18000n   -957.0849u  
   16.19000n   -957.0849u  
   16.20000n   -957.0849u  
   16.21000n   -957.0849u  
   16.22000n   -957.0849u  
   16.23000n   -957.0850u  
   16.24000n   -957.0850u  
   16.25000n   -957.0850u  
   16.26000n   -957.0850u  
   16.27000n   -957.0850u  
   16.28000n   -957.0850u  
   16.29000n   -957.0850u  
   16.30000n   -957.0850u  
   16.31000n   -957.0850u  
   16.32000n   -957.0850u  
   16.33000n   -957.0850u  
   16.34000n   -957.0850u  
   16.35000n   -957.0850u  
   16.36000n   -957.0850u  
   16.37000n   -957.0850u  
   16.38000n   -957.0851u  
   16.39000n   -957.0851u  
   16.40000n   -957.0851u  
   16.41000n   -957.0851u  
   16.42000n   -957.0851u  
   16.43000n   -957.0851u  
   16.44000n   -957.0851u  
   16.45000n   -957.0851u  
   16.46000n   -957.0851u  
   16.47000n   -957.0851u  
   16.48000n   -957.0851u  
   16.49000n   -957.0851u  
   16.50000n   -957.0851u  
   16.51000n   -957.0851u  
   16.52000n   -957.0851u  
   16.53000n   -957.0851u  
   16.54000n   -957.0852u  
   16.55000n   -957.0852u  
   16.56000n   -957.0852u  
   16.57000n   -957.0852u  
   16.58000n   -957.0852u  
   16.59000n   -957.0852u  
   16.60000n   -957.0852u  
   16.61000n   -957.0852u  
   16.62000n   -957.0852u  
   16.63000n   -957.0852u  
   16.64000n   -957.0852u  
   16.65000n   -957.0852u  
   16.66000n   -957.0852u  
   16.67000n   -957.0852u  
   16.68000n   -957.0852u  
   16.69000n   -957.0853u  
   16.70000n   -957.0853u  
   16.71000n   -957.0853u  
   16.72000n   -957.0853u  
   16.73000n   -957.0853u  
   16.74000n   -957.0853u  
   16.75000n   -957.0853u  
   16.76000n   -957.0853u  
   16.77000n   -957.0853u  
   16.78000n   -957.0853u  
   16.79000n   -957.0853u  
   16.80000n   -957.0853u  
   16.81000n   -957.0853u  
   16.82000n   -957.0853u  
   16.83000n   -957.0853u  
   16.84000n   -957.0854u  
   16.85000n   -957.0854u  
   16.86000n   -957.0854u  
   16.87000n   -957.0854u  
   16.88000n   -957.0854u  
   16.89000n   -957.0854u  
   16.90000n   -957.0854u  
   16.91000n   -957.0854u  
   16.92000n   -957.0854u  
   16.93000n   -957.0854u  
   16.94000n   -957.0854u  
   16.95000n   -957.0854u  
   16.96000n   -957.0854u  
   16.97000n   -957.0854u  
   16.98000n   -957.0854u  
   16.99000n   -957.0854u  
   17.00000n   -957.0855u  
   17.01000n   -957.0855u  
   17.02000n   -957.0855u  
   17.03000n   -957.0855u  
   17.04000n   -957.0855u  
   17.05000n   -957.0855u  
   17.06000n   -957.0855u  
   17.07000n   -957.0855u  
   17.08000n   -957.0855u  
   17.09000n   -957.0855u  
   17.10000n   -957.0855u  
   17.11000n   -957.0855u  
   17.12000n   -957.0855u  
   17.13000n   -957.0855u  
   17.14000n   -957.0855u  
   17.15000n   -957.0856u  
   17.16000n   -957.0856u  
   17.17000n   -957.0856u  
   17.18000n   -957.0856u  
   17.19000n   -957.0856u  
   17.20000n   -957.0856u  
   17.21000n   -957.0856u  
   17.22000n   -957.0856u  
   17.23000n   -957.0856u  
   17.24000n   -957.0856u  
   17.25000n   -957.0856u  
   17.26000n   -957.0856u  
   17.27000n   -957.0856u  
   17.28000n   -957.0856u  
   17.29000n   -957.0856u  
   17.30000n   -957.0856u  
   17.31000n   -957.0857u  
   17.32000n   -957.0857u  
   17.33000n   -957.0857u  
   17.34000n   -957.0857u  
   17.35000n   -957.0857u  
   17.36000n   -957.0857u  
   17.37000n   -957.0857u  
   17.38000n   -957.0857u  
   17.39000n   -957.0857u  
   17.40000n   -957.0857u  
   17.41000n   -957.0857u  
   17.42000n   -957.0857u  
   17.43000n   -957.0857u  
   17.44000n   -957.0857u  
   17.45000n   -957.0857u  
   17.46000n   -957.0858u  
   17.47000n   -957.0858u  
   17.48000n   -957.0858u  
   17.49000n   -957.0858u  
   17.50000n   -957.0858u  
   17.51000n   -957.0858u  
   17.52000n   -957.0858u  
   17.53000n   -957.0858u  
   17.54000n   -957.0858u  
   17.55000n   -957.0858u  
   17.56000n   -957.0858u  
   17.57000n   -957.0858u  
   17.58000n   -957.0858u  
   17.59000n   -957.0858u  
   17.60000n   -957.0858u  
   17.61000n   -957.0859u  
   17.62000n   -957.0859u  
   17.63000n   -957.0859u  
   17.64000n   -957.0859u  
   17.65000n   -957.0859u  
   17.66000n   -957.0859u  
   17.67000n   -957.0859u  
   17.68000n   -957.0859u  
   17.69000n   -957.0859u  
   17.70000n   -957.0859u  
   17.71000n   -957.0859u  
   17.72000n   -957.0859u  
   17.73000n   -957.0859u  
   17.74000n   -957.0859u  
   17.75000n   -957.0859u  
   17.76000n   -957.0859u  
   17.77000n   -957.0860u  
   17.78000n   -957.0860u  
   17.79000n   -957.0860u  
   17.80000n   -957.0860u  
   17.81000n   -957.0860u  
   17.82000n   -957.0860u  
   17.83000n   -957.0860u  
   17.84000n   -957.0860u  
   17.85000n   -957.0860u  
   17.86000n   -957.0860u  
   17.87000n   -957.0860u  
   17.88000n   -957.0860u  
   17.89000n   -957.0860u  
[...]
  193.49000n     -1.1950m  
  193.50000n     -1.1950m  
  193.51000n     -1.1950m  
  193.52000n     -1.1950m  
  193.53000n     -1.1950m  
  193.54000n     -1.1950m  
  193.55000n     -1.1950m  
  193.56000n     -1.1950m  
  193.57000n     -1.1950m  
  193.58000n     -1.1950m  
  193.59000n     -1.1950m  
  193.60000n     -1.1950m  
  193.61000n     -1.1950m  
  193.62000n     -1.1950m  
  193.63000n     -1.1950m  
  193.64000n     -1.1950m  
  193.65000n     -1.1950m  
  193.66000n     -1.1950m  
  193.67000n     -1.1950m  
  193.68000n     -1.1950m  
  193.69000n     -1.1950m  
  193.70000n     -1.1950m  
  193.71000n     -1.1950m  
  193.72000n     -1.1950m  
  193.73000n     -1.1950m  
  193.74000n     -1.1950m  
  193.75000n     -1.1950m  
  193.76000n     -1.1950m  
  193.77000n     -1.1950m  
  193.78000n     -1.1950m  
  193.79000n     -1.1950m  
  193.80000n     -1.1950m  
  193.81000n     -1.1950m  
  193.82000n     -1.1950m  
  193.83000n     -1.1950m  
  193.84000n     -1.1950m  
  193.85000n     -1.1950m  
  193.86000n     -1.1950m  
  193.87000n     -1.1950m  
  193.88000n     -1.1950m  
  193.89000n     -1.1950m  
  193.90000n     -1.1950m  
  193.91000n     -1.1950m  
  193.92000n     -1.1950m  
  193.93000n     -1.1950m  
  193.94000n     -1.1950m  
  193.95000n     -1.1950m  
  193.96000n     -1.1950m  
  193.97000n     -1.1950m  
  193.98000n     -1.1950m  
  193.99000n     -1.1950m  
  194.00000n     -1.1950m  
  194.01000n     -1.1950m  
  194.02000n     -1.1950m  
  194.03000n     -1.1950m  
  194.04000n     -1.1950m  
  194.05000n     -1.1950m  
  194.06000n     -1.1950m  
  194.07000n     -1.1950m  
  194.08000n     -1.1950m  
  194.09000n     -1.1950m  
  194.10000n     -1.1950m  
  194.11000n     -1.1950m  
  194.12000n     -1.1950m  
  194.13000n     -1.1950m  
  194.14000n     -1.1950m  
  194.15000n     -1.1950m  
  194.16000n     -1.1950m  
  194.17000n     -1.1950m  
  194.18000n     -1.1950m  
  194.19000n     -1.1950m  
  194.20000n     -1.1950m  
  194.21000n     -1.1950m  
  194.22000n     -1.1950m  
  194.23000n     -1.1950m  
  194.24000n     -1.1950m  
  194.25000n     -1.1950m  
  194.26000n     -1.1950m  
  194.27000n     -1.1950m  
  194.28000n     -1.1950m  
  194.29000n     -1.1950m  
  194.30000n     -1.1950m  
  194.31000n     -1.1950m  
  194.32000n     -1.1950m  
  194.33000n     -1.1950m  
  194.34000n     -1.1950m  
  194.35000n     -1.1950m  
  194.36000n     -1.1950m  
  194.37000n     -1.1950m  
  194.38000n     -1.1950m  
  194.39000n     -1.1950m  
  194.40000n     -1.1950m  
  194.41000n     -1.1950m  
  194.42000n     -1.1950m  
  194.43000n     -1.1950m  
  194.44000n     -1.1950m  
  194.45000n     -1.1950m  
  194.46000n     -1.1950m  
  194.47000n     -1.1950m  
  194.48000n     -1.1950m  
  194.49000n     -1.1950m  
  194.50000n     -1.1950m  
  194.51000n     -1.1950m  
  194.52000n     -1.1950m  
  194.53000n     -1.1950m  
  194.54000n     -1.1950m  
  194.55000n     -1.1950m  
  194.56000n     -1.1950m  
  194.57000n     -1.1950m  
  194.58000n     -1.1950m  
  194.59000n     -1.1950m  
  194.60000n     -1.1950m  
  194.61000n     -1.1950m  
  194.62000n     -1.1950m  
  194.63000n     -1.1950m  
  194.64000n     -1.1950m  
  194.65000n     -1.1950m  
  194.66000n     -1.1950m  
  194.67000n     -1.1950m  
  194.68000n     -1.1950m  
  194.69000n     -1.1950m  
  194.70000n     -1.1950m  
  194.71000n     -1.1950m  
  194.72000n     -1.1950m  
  194.73000n     -1.1950m  
  194.74000n     -1.1950m  
  194.75000n     -1.1950m  
  194.76000n     -1.1950m  
  194.77000n     -1.1950m  
  194.78000n     -1.1950m  
  194.79000n     -1.1950m  
  194.80000n     -1.1950m  
  194.81000n     -1.1950m  
  194.82000n     -1.1950m  
  194.83000n     -1.1950m  
  194.84000n     -1.1950m  
  194.85000n     -1.1950m  
  194.86000n     -1.1950m  
  194.87000n     -1.1950m  
  194.88000n     -1.1950m  
  194.89000n     -1.1950m  
  194.90000n     -1.1950m  
  194.91000n     -1.1950m  
  194.92000n     -1.1950m  
  194.93000n     -1.1950m  
  194.94000n     -1.1950m  
  194.95000n     -1.1950m  
  194.96000n     -1.1950m  
  194.97000n     -1.1950m  
  194.98000n     -1.1950m  
  194.99000n     -1.1950m  
  195.00000n     -1.1950m  
  195.01000n     -1.1950m  
  195.02000n     -1.1950m  
  195.03000n     -1.1950m  
  195.04000n     -1.1950m  
  195.05000n     -1.1950m  
  195.06000n     -1.1950m  
  195.07000n     -1.1950m  
  195.08000n     -1.1950m  
  195.09000n     -1.1950m  
  195.10000n     -1.1950m  
  195.11000n     -1.1950m  
  195.12000n     -1.1950m  
  195.13000n     -1.1950m  
  195.14000n     -1.1950m  
  195.15000n     -1.1951m  
  195.16000n     -1.1951m  
  195.17000n     -1.1951m  
  195.18000n     -1.1951m  
  195.19000n     -1.1951m  
  195.20000n     -1.1951m  
  195.21000n     -1.1951m  
  195.22000n     -1.1951m  
  195.23000n     -1.1951m  
  195.24000n     -1.1951m  
  195.25000n     -1.1951m  
  195.26000n     -1.1951m  
  195.27000n     -1.1951m  
  195.28000n     -1.1951m  
  195.29000n     -1.1951m  
  195.30000n     -1.1951m  
  195.31000n     -1.1951m  
  195.32000n     -1.1951m  
  195.33000n     -1.1951m  
  195.34000n     -1.1951m  
  195.35000n     -1.1951m  
  195.36000n     -1.1951m  
  195.37000n     -1.1951m  
  195.38000n     -1.1951m  
  195.39000n     -1.1951m  
  195.40000n     -1.1951m  
  195.41000n     -1.1951m  
  195.42000n     -1.1951m  
  195.43000n     -1.1951m  
  195.44000n     -1.1951m  
  195.45000n     -1.1951m  
  195.46000n     -1.1951m  
  195.47000n     -1.1951m  
  195.48000n     -1.1951m  
  195.49000n     -1.1951m  
  195.50000n     -1.1951m  
  195.51000n     -1.1951m  
  195.52000n     -1.1951m  
  195.53000n     -1.1951m  
  195.54000n     -1.1951m  
  195.55000n     -1.1951m  
  195.56000n     -1.1951m  
  195.57000n     -1.1951m  
  195.58000n     -1.1951m  
  195.59000n     -1.1951m  
  195.60000n     -1.1951m  
  195.61000n     -1.1951m  
  195.62000n     -1.1951m  
  195.63000n     -1.1951m  
  195.64000n     -1.1951m  
  195.65000n     -1.1951m  
  195.66000n     -1.1951m  
  195.67000n     -1.1951m  
  195.68000n     -1.1951m  
  195.69000n     -1.1951m  
  195.70000n     -1.1951m  
  195.71000n     -1.1951m  
  195.72000n     -1.1951m  
  195.73000n     -1.1951m  
  195.74000n     -1.1951m  
  195.75000n     -1.1951m  
  195.76000n     -1.1951m  
  195.77000n     -1.1951m  
  195.78000n     -1.1951m  
  195.79000n     -1.1951m  
  195.80000n     -1.1951m  
  195.81000n     -1.1951m  
  195.82000n     -1.1951m  
  195.83000n     -1.1951m  
  195.84000n     -1.1951m  
  195.85000n     -1.1951m  
  195.86000n     -1.1951m  
  195.87000n     -1.1951m  
  195.88000n     -1.1951m  
  195.89000n     -1.1951m  
  195.90000n     -1.1951m  
  195.91000n     -1.1951m  
  195.92000n     -1.1951m  
  195.93000n     -1.1951m  
  195.94000n     -1.1951m  
  195.95000n     -1.1951m  
  195.96000n     -1.1951m  
  195.97000n     -1.1951m  
  195.98000n     -1.1951m  
  195.99000n     -1.1951m  
  196.00000n     -1.1951m  
  196.01000n     -1.1951m  
  196.02000n     -1.1951m  
  196.03000n     -1.1951m  
  196.04000n     -1.1951m  
  196.05000n     -1.1951m  
  196.06000n     -1.1951m  
  196.07000n     -1.1951m  
  196.08000n     -1.1951m  
  196.09000n     -1.1951m  
  196.10000n     -1.1951m  
  196.11000n     -1.1951m  
  196.12000n     -1.1951m  
  196.13000n     -1.1951m  
  196.14000n     -1.1951m  
  196.15000n     -1.1951m  
  196.16000n     -1.1951m  
  196.17000n     -1.1951m  
  196.18000n     -1.1951m  
  196.19000n     -1.1951m  
  196.20000n     -1.1951m  
  196.21000n     -1.1951m  
  196.22000n     -1.1951m  
  196.23000n     -1.1951m  
  196.24000n     -1.1951m  
  196.25000n     -1.1951m  
  196.26000n     -1.1951m  
  196.27000n     -1.1951m  
  196.28000n     -1.1951m  
  196.29000n     -1.1951m  
  196.30000n     -1.1951m  
  196.31000n     -1.1951m  
  196.32000n     -1.1951m  
  196.33000n     -1.1951m  
  196.34000n     -1.1951m  
  196.35000n     -1.1951m  
  196.36000n     -1.1951m  
  196.37000n     -1.1951m  
  196.38000n     -1.1951m  
  196.39000n     -1.1951m  
  196.40000n     -1.1951m  
  196.41000n     -1.1951m  
  196.42000n     -1.1951m  
  196.43000n     -1.1951m  
  196.44000n     -1.1951m  
  196.45000n     -1.1951m  
  196.46000n     -1.1951m  
  196.47000n     -1.1951m  
  196.48000n     -1.1951m  
  196.49000n     -1.1951m  
  196.50000n     -1.1951m  
  196.51000n     -1.1951m  
  196.52000n     -1.1951m  
  196.53000n     -1.1951m  
  196.54000n     -1.1951m  
  196.55000n     -1.1951m  
  196.56000n     -1.1951m  
  196.57000n     -1.1951m  
  196.58000n     -1.1951m  
  196.59000n     -1.1951m  
  196.60000n     -1.1951m  
  196.61000n     -1.1951m  
  196.62000n     -1.1951m  
  196.63000n     -1.1951m  
  196.64000n     -1.1951m  
  196.65000n     -1.1951m  
  196.66000n     -1.1951m  
  196.67000n     -1.1951m  
  196.68000n     -1.1951m  
  196.69000n     -1.1951m  
  196.70000n     -1.1951m  
  196.71000n     -1.1951m  
  196.72000n     -1.1951m  
  196.73000n     -1.1951m  
  196.74000n     -1.1951m  
  196.75000n     -1.1951m  
  196.76000n     -1.1951m  
  196.77000n     -1.1951m  
  196.78000n     -1.1951m  
  196.79000n     -1.1951m  
  196.80000n     -1.1951m  
  196.81000n     -1.1951m  
  196.82000n     -1.1951m  
  196.83000n     -1.1951m  
  196.84000n     -1.1951m  
  196.85000n     -1.1951m  
  196.86000n     -1.1951m  
  196.87000n     -1.1951m  
  196.88000n     -1.1951m  
  196.89000n     -1.1951m  
  196.90000n     -1.1951m  
  196.91000n     -1.1951m  
  196.92000n     -1.1951m  
  196.93000n     -1.1951m  
  196.94000n     -1.1951m  
  196.95000n     -1.1951m  
  196.96000n     -1.1951m  
  196.97000n     -1.1951m  
  196.98000n     -1.1951m  
  196.99000n     -1.1951m  
  197.00000n     -1.1951m  
  197.01000n     -1.1951m  
  197.02000n     -1.1951m  
  197.03000n     -1.1951m  
  197.04000n     -1.1951m  
  197.05000n     -1.1951m  
  197.06000n     -1.1951m  
  197.07000n     -1.1951m  
  197.08000n     -1.1951m  
  197.09000n     -1.1951m  
  197.10000n     -1.1951m  
  197.11000n     -1.1952m  
  197.12000n     -1.1952m  
  197.13000n     -1.1952m  
  197.14000n     -1.1952m  
  197.15000n     -1.1952m  
  197.16000n     -1.1952m  
  197.17000n     -1.1952m  
  197.18000n     -1.1952m  
  197.19000n     -1.1952m  
  197.20000n     -1.1952m  
  197.21000n     -1.1952m  
  197.22000n     -1.1952m  
  197.23000n     -1.1952m  
  197.24000n     -1.1952m  
  197.25000n     -1.1952m  
  197.26000n     -1.1952m  
  197.27000n     -1.1952m  
  197.28000n     -1.1952m  
  197.29000n     -1.1952m  
  197.30000n     -1.1952m  
  197.31000n     -1.1952m  
  197.32000n     -1.1952m  
  197.33000n     -1.1952m  
  197.34000n     -1.1952m  
  197.35000n     -1.1952m  
  197.36000n     -1.1952m  
  197.37000n     -1.1952m  
  197.38000n     -1.1952m  
  197.39000n     -1.1952m  
  197.40000n     -1.1952m  
  197.41000n     -1.1952m  
  197.42000n     -1.1952m  
  197.43000n     -1.1952m  
  197.44000n     -1.1952m  
  197.45000n     -1.1952m  
  197.46000n     -1.1952m  
  197.47000n     -1.1952m  
  197.48000n     -1.1952m  
  197.49000n     -1.1952m  
  197.50000n     -1.1952m  
  197.51000n     -1.1952m  
  197.52000n     -1.1952m  
  197.53000n     -1.1952m  
  197.54000n     -1.1952m  
  197.55000n     -1.1952m  
  197.56000n     -1.1952m  
  197.57000n     -1.1952m  
  197.58000n     -1.1952m  
  197.59000n     -1.1952m  
  197.60000n     -1.1952m  
  197.61000n     -1.1952m  
  197.62000n     -1.1952m  
  197.63000n     -1.1952m  
  197.64000n     -1.1952m  
  197.65000n     -1.1952m  
  197.66000n     -1.1952m  
  197.67000n     -1.1952m  
  197.68000n     -1.1952m  
  197.69000n     -1.1952m  
  197.70000n     -1.1952m  
  197.71000n     -1.1952m  
  197.72000n     -1.1952m  
  197.73000n     -1.1952m  
  197.74000n     -1.1952m  
  197.75000n     -1.1952m  
  197.76000n     -1.1952m  
  197.77000n     -1.1952m  
  197.78000n     -1.1952m  
  197.79000n     -1.1952m  
  197.80000n     -1.1952m  
  197.81000n     -1.1952m  
  197.82000n     -1.1952m  
  197.83000n     -1.1952m  
  197.84000n     -1.1952m  
  197.85000n     -1.1952m  
  197.86000n     -1.1952m  
  197.87000n     -1.1952m  
  197.88000n     -1.1952m  
  197.89000n     -1.1952m  
  197.90000n     -1.1952m  
  197.91000n     -1.1952m  
  197.92000n     -1.1952m  
  197.93000n     -1.1952m  
  197.94000n     -1.1952m  
  197.95000n     -1.1952m  
  197.96000n     -1.1952m  
  197.97000n     -1.1952m  
  197.98000n     -1.1952m  
  197.99000n     -1.1952m  
  198.00000n     -1.1952m  
  198.01000n     -1.1952m  
  198.02000n     -1.1952m  
  198.03000n     -1.1952m  
  198.04000n     -1.1952m  
  198.05000n     -1.1952m  
  198.06000n     -1.1952m  
  198.07000n     -1.1952m  
  198.08000n     -1.1952m  
  198.09000n     -1.1952m  
  198.10000n     -1.1952m  
  198.11000n     -1.1952m  
  198.12000n     -1.1952m  
  198.13000n     -1.1952m  
  198.14000n     -1.1952m  
  198.15000n     -1.1952m  
  198.16000n     -1.1952m  
  198.17000n     -1.1952m  
  198.18000n     -1.1952m  
  198.19000n     -1.1952m  
  198.20000n     -1.1952m  
  198.21000n     -1.1952m  
  198.22000n     -1.1952m  
  198.23000n     -1.1952m  
  198.24000n     -1.1952m  
  198.25000n     -1.1952m  
  198.26000n     -1.1952m  
  198.27000n     -1.1952m  
  198.28000n     -1.1952m  
  198.29000n     -1.1952m  
  198.30000n     -1.1952m  
  198.31000n     -1.1952m  
  198.32000n     -1.1952m  
  198.33000n     -1.1952m  
  198.34000n     -1.1952m  
  198.35000n     -1.1952m  
  198.36000n     -1.1952m  
  198.37000n     -1.1952m  
  198.38000n     -1.1952m  
  198.39000n     -1.1952m  
  198.40000n     -1.1952m  
  198.41000n     -1.1952m  
  198.42000n     -1.1952m  
  198.43000n     -1.1952m  
  198.44000n     -1.1952m  
  198.45000n     -1.1952m  
  198.46000n     -1.1952m  
  198.47000n     -1.1952m  
  198.48000n     -1.1952m  
  198.49000n     -1.1952m  
  198.50000n     -1.1952m  
  198.51000n     -1.1952m  
  198.52000n     -1.1952m  
  198.53000n     -1.1952m  
  198.54000n     -1.1952m  
  198.55000n     -1.1952m  
  198.56000n     -1.1952m  
  198.57000n     -1.1952m  
  198.58000n     -1.1952m  
  198.59000n     -1.1952m  
  198.60000n     -1.1952m  
  198.61000n     -1.1952m  
  198.62000n     -1.1952m  
  198.63000n     -1.1952m  
  198.64000n     -1.1952m  
  198.65000n     -1.1952m  
  198.66000n     -1.1952m  
  198.67000n     -1.1952m  
  198.68000n     -1.1952m  
  198.69000n     -1.1952m  
  198.70000n     -1.1952m  
  198.71000n     -1.1952m  
  198.72000n     -1.1952m  
  198.73000n     -1.1952m  
  198.74000n     -1.1952m  
  198.75000n     -1.1952m  
  198.76000n     -1.1952m  
  198.77000n     -1.1952m  
  198.78000n     -1.1952m  
  198.79000n     -1.1952m  
  198.80000n     -1.1952m  
  198.81000n     -1.1952m  
  198.82000n     -1.1952m  
  198.83000n     -1.1952m  
  198.84000n     -1.1952m  
  198.85000n     -1.1952m  
  198.86000n     -1.1952m  
  198.87000n     -1.1952m  
  198.88000n     -1.1952m  
  198.89000n     -1.1952m  
  198.90000n     -1.1952m  
  198.91000n     -1.1952m  
  198.92000n     -1.1952m  
  198.93000n     -1.1952m  
  198.94000n     -1.1952m  
  198.95000n     -1.1952m  
  198.96000n     -1.1952m  
  198.97000n     -1.1952m  
  198.98000n     -1.1952m  
  198.99000n     -1.1952m  
  199.00000n     -1.1952m  
  199.01000n     -1.1952m  
  199.02000n     -1.1952m  
  199.03000n     -1.1952m  
  199.04000n     -1.1952m  
  199.05000n     -1.1952m  
  199.06000n     -1.1953m  
  199.07000n     -1.1953m  
  199.08000n     -1.1953m  
  199.09000n     -1.1953m  
  199.10000n     -1.1953m  
  199.11000n     -1.1953m  
  199.12000n     -1.1953m  
  199.13000n     -1.1953m  
  199.14000n     -1.1953m  
  199.15000n     -1.1953m  
  199.16000n     -1.1953m  
  199.17000n     -1.1953m  
  199.18000n     -1.1953m  
  199.19000n     -1.1953m  
  199.20000n     -1.1953m  
  199.21000n     -1.1953m  
  199.22000n     -1.1953m  
  199.23000n     -1.1953m  
  199.24000n     -1.1953m  
  199.25000n     -1.1953m  
  199.26000n     -1.1953m  
  199.27000n     -1.1953m  
  199.28000n     -1.1953m  
  199.29000n     -1.1953m  
  199.30000n     -1.1953m  
  199.31000n     -1.1953m  
  199.32000n     -1.1953m  
  199.33000n     -1.1953m  
  199.34000n     -1.1953m  
  199.35000n     -1.1953m  
  199.36000n     -1.1953m  
  199.37000n     -1.1953m  
  199.38000n     -1.1953m  
  199.39000n     -1.1953m  
  199.40000n     -1.1953m  
  199.41000n     -1.1953m  
  199.42000n     -1.1953m  
  199.43000n     -1.1953m  
  199.44000n     -1.1953m  
  199.45000n     -1.1953m  
  199.46000n     -1.1953m  
  199.47000n     -1.1953m  
  199.48000n     -1.1953m  
  199.49000n     -1.1953m  
  199.50000n     -1.1953m  
  199.51000n     -1.1953m  
  199.52000n     -1.1953m  
  199.53000n     -1.1953m  
  199.54000n     -1.1953m  
  199.55000n     -1.1953m  
  199.56000n     -1.1953m  
  199.57000n     -1.1953m  
  199.58000n     -1.1953m  
  199.59000n     -1.1953m  
  199.60000n     -1.1953m  
  199.61000n     -1.1953m  
  199.62000n     -1.1953m  
  199.63000n     -1.1953m  
  199.64000n     -1.1953m  
  199.65000n     -1.1953m  
  199.66000n     -1.1953m  
  199.67000n     -1.1953m  
  199.68000n     -1.1953m  
  199.69000n     -1.1953m  
  199.70000n     -1.1953m  
  199.71000n     -1.1953m  
  199.72000n     -1.1953m  
  199.73000n     -1.1953m  
  199.74000n     -1.1953m  
  199.75000n     -1.1953m  
  199.76000n     -1.1953m  
  199.77000n     -1.1953m  
  199.78000n     -1.1953m  
  199.79000n     -1.1953m  
  199.80000n     -1.1953m  
  199.81000n     -1.1953m  
  199.82000n     -1.1953m  
  199.83000n     -1.1953m  
  199.84000n     -1.1953m  
  199.85000n     -1.1953m  
  199.86000n     -1.1953m  
  199.87000n     -1.1953m  
  199.88000n     -1.1953m  
  199.89000n     -1.1953m  
  199.90000n     -1.1953m  
  199.91000n     -1.1953m  
  199.92000n     -1.1953m  
  199.93000n     -1.1953m  
  199.94000n     -1.1953m  
  199.95000n     -1.1953m  
  199.96000n     -1.1953m  
  199.97000n     -1.1953m  
  199.98000n     -1.1953m  
  199.99000n     -1.1953m  
  200.00000n     -1.1953m  
y

          ***** job concluded
1****** HSPICE -- D-2010.03-SP1 32-BIT (May 26 2010) winnt ******               
 ******  
 * **************************************************

  ******  job statistics summary tnom=  25.000 temp=  25.000 *****

  ******  HSPICE Threads Information  ******

  Command Line Threads Count                  :     1
  Available CPU Count                         :     2
  Actual Model Evaluation(Load) Threads Count :     1
  Actual Solver Threads Count                 :     1


  ******  Circuit Statistics  ******
  # nodes       =     326 # elements   =      83
  # resistors   =       6 # capacitors =       0 # inductors   =       0
  # mutual_inds =       0 # vccs       =       0 # vcvs        =       0
  # cccs        =       0 # ccvs       =       0 # volt_srcs   =       7
  # curr_srcs   =       0 # diodes     =       0 # bjts        =       0
  # jfets       =       0 # mosfets    =      70 # U elements  =       0
  # T elements  =       0 # W elements =       0 # B elements  =       0
  # S elements  =       0 # P elements =       0 # va device   =       0


  ******  Runtime Statistics (seconds)  ******

  analysis           time    # points   tot. iter  conv.iter
  op point           0.03           1          17
  transient          0.43       20001         719         256 rev=        37
  readin             0.08
  errchk             0.02
  setup              0.02
  output             0.06


           total memory used          741  kbytes
           total cpu time            0.67 seconds
           total elapsed time        0.72 seconds
           job started at     23:29:28 03/18/2009
           job ended   at     23:29:28 03/18/2009


  lic: Release hspice token(s) 
