
---------- Begin Simulation Statistics ----------
sim_seconds                                  0.001140                       # Number of seconds simulated
sim_ticks                                  1139732000                       # Number of ticks simulated
final_tick                               2255581504000                       # Number of ticks from beginning of simulation (restored from checkpoints and never reset)
sim_freq                                 1000000000000                       # Frequency of simulated ticks
host_inst_rate                               26811792                       # Simulator instruction rate (inst/s)
host_op_rate                                 26811729                       # Simulator op (including micro ops) rate (op/s)
host_tick_rate                              311858394                       # Simulator tick rate (ticks/s)
host_mem_usage                                 733388                       # Number of bytes of host memory used
host_seconds                                     3.65                       # Real time elapsed on the host
sim_insts                                    97987166                       # Number of instructions simulated
sim_ops                                      97987166                       # Number of ops (including micro ops) simulated
system.voltage_domain.voltage                       1                       # Voltage in Volts
system.clk_domain.clock                          1000                       # Clock period in ticks
system.mem_ctrls.bytes_read::switch_cpus.inst       336640                       # Number of bytes read from this memory
system.mem_ctrls.bytes_read::switch_cpus.data       919424                       # Number of bytes read from this memory
system.mem_ctrls.bytes_read::total            1256064                       # Number of bytes read from this memory
system.mem_ctrls.bytes_inst_read::switch_cpus.inst       336640                       # Number of instructions bytes read from this memory
system.mem_ctrls.bytes_inst_read::total        336640                       # Number of instructions bytes read from this memory
system.mem_ctrls.bytes_written::writebacks       582464                       # Number of bytes written to this memory
system.mem_ctrls.bytes_written::total          582464                       # Number of bytes written to this memory
system.mem_ctrls.num_reads::switch_cpus.inst         5260                       # Number of read requests responded to by this memory
system.mem_ctrls.num_reads::switch_cpus.data        14366                       # Number of read requests responded to by this memory
system.mem_ctrls.num_reads::total               19626                       # Number of read requests responded to by this memory
system.mem_ctrls.num_writes::writebacks          9101                       # Number of write requests responded to by this memory
system.mem_ctrls.num_writes::total               9101                       # Number of write requests responded to by this memory
system.mem_ctrls.bw_read::switch_cpus.inst    295367683                       # Total read bandwidth from this memory (bytes/s)
system.mem_ctrls.bw_read::switch_cpus.data    806701926                       # Total read bandwidth from this memory (bytes/s)
system.mem_ctrls.bw_read::total            1102069609                       # Total read bandwidth from this memory (bytes/s)
system.mem_ctrls.bw_inst_read::switch_cpus.inst    295367683                       # Instruction read bandwidth from this memory (bytes/s)
system.mem_ctrls.bw_inst_read::total        295367683                       # Instruction read bandwidth from this memory (bytes/s)
system.mem_ctrls.bw_write::writebacks       511053476                       # Write bandwidth from this memory (bytes/s)
system.mem_ctrls.bw_write::total            511053476                       # Write bandwidth from this memory (bytes/s)
system.mem_ctrls.bw_total::writebacks       511053476                       # Total bandwidth to/from this memory (bytes/s)
system.mem_ctrls.bw_total::switch_cpus.inst    295367683                       # Total bandwidth to/from this memory (bytes/s)
system.mem_ctrls.bw_total::switch_cpus.data    806701926                       # Total bandwidth to/from this memory (bytes/s)
system.mem_ctrls.bw_total::total           1613123085                       # Total bandwidth to/from this memory (bytes/s)
system.mem_ctrls.readReqs                       19626                       # Number of read requests accepted
system.mem_ctrls.writeReqs                       9101                       # Number of write requests accepted
system.mem_ctrls.readBursts                     19626                       # Number of DRAM read bursts, including those serviced by the write queue
system.mem_ctrls.writeBursts                     9101                       # Number of DRAM write bursts, including those merged in the write queue
system.mem_ctrls.bytesReadDRAM                1255360                       # Total number of bytes read from DRAM
system.mem_ctrls.bytesReadWrQ                     704                       # Total number of bytes read from write queue
system.mem_ctrls.bytesWritten                  580608                       # Total number of bytes written to DRAM
system.mem_ctrls.bytesReadSys                 1256064                       # Total read bytes from the system interface side
system.mem_ctrls.bytesWrittenSys               582464                       # Total written bytes from the system interface side
system.mem_ctrls.servicedByWrQ                     11                       # Number of DRAM read bursts serviced by the write queue
system.mem_ctrls.mergedWrBursts                     0                       # Number of DRAM write bursts merged with an existing one
system.mem_ctrls.neitherReadNorWriteReqs            1                       # Number of requests that are neither read nor write
system.mem_ctrls.perBankRdBursts::0              1316                       # Per bank write bursts
system.mem_ctrls.perBankRdBursts::1              1004                       # Per bank write bursts
system.mem_ctrls.perBankRdBursts::2              1387                       # Per bank write bursts
system.mem_ctrls.perBankRdBursts::3              1266                       # Per bank write bursts
system.mem_ctrls.perBankRdBursts::4              1269                       # Per bank write bursts
system.mem_ctrls.perBankRdBursts::5              1003                       # Per bank write bursts
system.mem_ctrls.perBankRdBursts::6              1390                       # Per bank write bursts
system.mem_ctrls.perBankRdBursts::7              1101                       # Per bank write bursts
system.mem_ctrls.perBankRdBursts::8              1178                       # Per bank write bursts
system.mem_ctrls.perBankRdBursts::9              1288                       # Per bank write bursts
system.mem_ctrls.perBankRdBursts::10             1179                       # Per bank write bursts
system.mem_ctrls.perBankRdBursts::11             1447                       # Per bank write bursts
system.mem_ctrls.perBankRdBursts::12             1048                       # Per bank write bursts
system.mem_ctrls.perBankRdBursts::13             1702                       # Per bank write bursts
system.mem_ctrls.perBankRdBursts::14             1134                       # Per bank write bursts
system.mem_ctrls.perBankRdBursts::15              903                       # Per bank write bursts
system.mem_ctrls.perBankWrBursts::0               538                       # Per bank write bursts
system.mem_ctrls.perBankWrBursts::1               571                       # Per bank write bursts
system.mem_ctrls.perBankWrBursts::2               879                       # Per bank write bursts
system.mem_ctrls.perBankWrBursts::3              1042                       # Per bank write bursts
system.mem_ctrls.perBankWrBursts::4               808                       # Per bank write bursts
system.mem_ctrls.perBankWrBursts::5               599                       # Per bank write bursts
system.mem_ctrls.perBankWrBursts::6               769                       # Per bank write bursts
system.mem_ctrls.perBankWrBursts::7               448                       # Per bank write bursts
system.mem_ctrls.perBankWrBursts::8               412                       # Per bank write bursts
system.mem_ctrls.perBankWrBursts::9               671                       # Per bank write bursts
system.mem_ctrls.perBankWrBursts::10              294                       # Per bank write bursts
system.mem_ctrls.perBankWrBursts::11              403                       # Per bank write bursts
system.mem_ctrls.perBankWrBursts::12              200                       # Per bank write bursts
system.mem_ctrls.perBankWrBursts::13              477                       # Per bank write bursts
system.mem_ctrls.perBankWrBursts::14              472                       # Per bank write bursts
system.mem_ctrls.perBankWrBursts::15              489                       # Per bank write bursts
system.mem_ctrls.numRdRetry                         0                       # Number of times read queue was full causing retry
system.mem_ctrls.numWrRetry                         0                       # Number of times write queue was full causing retry
system.mem_ctrls.totGap                    1139692000                       # Total gap between requests
system.mem_ctrls.readPktSize::0                     0                       # Read request sizes (log2)
system.mem_ctrls.readPktSize::1                     0                       # Read request sizes (log2)
system.mem_ctrls.readPktSize::2                     0                       # Read request sizes (log2)
system.mem_ctrls.readPktSize::3                     0                       # Read request sizes (log2)
system.mem_ctrls.readPktSize::4                     0                       # Read request sizes (log2)
system.mem_ctrls.readPktSize::5                     0                       # Read request sizes (log2)
system.mem_ctrls.readPktSize::6                 19626                       # Read request sizes (log2)
system.mem_ctrls.writePktSize::0                    0                       # Write request sizes (log2)
system.mem_ctrls.writePktSize::1                    0                       # Write request sizes (log2)
system.mem_ctrls.writePktSize::2                    0                       # Write request sizes (log2)
system.mem_ctrls.writePktSize::3                    0                       # Write request sizes (log2)
system.mem_ctrls.writePktSize::4                    0                       # Write request sizes (log2)
system.mem_ctrls.writePktSize::5                    0                       # Write request sizes (log2)
system.mem_ctrls.writePktSize::6                 9101                       # Write request sizes (log2)
system.mem_ctrls.rdQLenPdf::0                    9630                       # What read queue length does an incoming req see
system.mem_ctrls.rdQLenPdf::1                    5112                       # What read queue length does an incoming req see
system.mem_ctrls.rdQLenPdf::2                    3060                       # What read queue length does an incoming req see
system.mem_ctrls.rdQLenPdf::3                    1784                       # What read queue length does an incoming req see
system.mem_ctrls.rdQLenPdf::4                      28                       # What read queue length does an incoming req see
system.mem_ctrls.rdQLenPdf::5                       1                       # What read queue length does an incoming req see
system.mem_ctrls.rdQLenPdf::6                       0                       # What read queue length does an incoming req see
system.mem_ctrls.rdQLenPdf::7                       0                       # What read queue length does an incoming req see
system.mem_ctrls.rdQLenPdf::8                       0                       # What read queue length does an incoming req see
system.mem_ctrls.rdQLenPdf::9                       0                       # What read queue length does an incoming req see
system.mem_ctrls.rdQLenPdf::10                      0                       # What read queue length does an incoming req see
system.mem_ctrls.rdQLenPdf::11                      0                       # What read queue length does an incoming req see
system.mem_ctrls.rdQLenPdf::12                      0                       # What read queue length does an incoming req see
system.mem_ctrls.rdQLenPdf::13                      0                       # What read queue length does an incoming req see
system.mem_ctrls.rdQLenPdf::14                      0                       # What read queue length does an incoming req see
system.mem_ctrls.rdQLenPdf::15                      0                       # What read queue length does an incoming req see
system.mem_ctrls.rdQLenPdf::16                      0                       # What read queue length does an incoming req see
system.mem_ctrls.rdQLenPdf::17                      0                       # What read queue length does an incoming req see
system.mem_ctrls.rdQLenPdf::18                      0                       # What read queue length does an incoming req see
system.mem_ctrls.rdQLenPdf::19                      0                       # What read queue length does an incoming req see
system.mem_ctrls.rdQLenPdf::20                      0                       # What read queue length does an incoming req see
system.mem_ctrls.rdQLenPdf::21                      0                       # What read queue length does an incoming req see
system.mem_ctrls.rdQLenPdf::22                      0                       # What read queue length does an incoming req see
system.mem_ctrls.rdQLenPdf::23                      0                       # What read queue length does an incoming req see
system.mem_ctrls.rdQLenPdf::24                      0                       # What read queue length does an incoming req see
system.mem_ctrls.rdQLenPdf::25                      0                       # What read queue length does an incoming req see
system.mem_ctrls.rdQLenPdf::26                      0                       # What read queue length does an incoming req see
system.mem_ctrls.rdQLenPdf::27                      0                       # What read queue length does an incoming req see
system.mem_ctrls.rdQLenPdf::28                      0                       # What read queue length does an incoming req see
system.mem_ctrls.rdQLenPdf::29                      0                       # What read queue length does an incoming req see
system.mem_ctrls.rdQLenPdf::30                      0                       # What read queue length does an incoming req see
system.mem_ctrls.rdQLenPdf::31                      0                       # What read queue length does an incoming req see
system.mem_ctrls.wrQLenPdf::0                       1                       # What write queue length does an incoming req see
system.mem_ctrls.wrQLenPdf::1                       1                       # What write queue length does an incoming req see
system.mem_ctrls.wrQLenPdf::2                       1                       # What write queue length does an incoming req see
system.mem_ctrls.wrQLenPdf::3                       1                       # What write queue length does an incoming req see
system.mem_ctrls.wrQLenPdf::4                       1                       # What write queue length does an incoming req see
system.mem_ctrls.wrQLenPdf::5                       1                       # What write queue length does an incoming req see
system.mem_ctrls.wrQLenPdf::6                       1                       # What write queue length does an incoming req see
system.mem_ctrls.wrQLenPdf::7                       1                       # What write queue length does an incoming req see
system.mem_ctrls.wrQLenPdf::8                       1                       # What write queue length does an incoming req see
system.mem_ctrls.wrQLenPdf::9                       1                       # What write queue length does an incoming req see
system.mem_ctrls.wrQLenPdf::10                      1                       # What write queue length does an incoming req see
system.mem_ctrls.wrQLenPdf::11                      1                       # What write queue length does an incoming req see
system.mem_ctrls.wrQLenPdf::12                      1                       # What write queue length does an incoming req see
system.mem_ctrls.wrQLenPdf::13                      1                       # What write queue length does an incoming req see
system.mem_ctrls.wrQLenPdf::14                      1                       # What write queue length does an incoming req see
system.mem_ctrls.wrQLenPdf::15                     53                       # What write queue length does an incoming req see
system.mem_ctrls.wrQLenPdf::16                     61                       # What write queue length does an incoming req see
system.mem_ctrls.wrQLenPdf::17                    311                       # What write queue length does an incoming req see
system.mem_ctrls.wrQLenPdf::18                    465                       # What write queue length does an incoming req see
system.mem_ctrls.wrQLenPdf::19                    545                       # What write queue length does an incoming req see
system.mem_ctrls.wrQLenPdf::20                    565                       # What write queue length does an incoming req see
system.mem_ctrls.wrQLenPdf::21                    585                       # What write queue length does an incoming req see
system.mem_ctrls.wrQLenPdf::22                    585                       # What write queue length does an incoming req see
system.mem_ctrls.wrQLenPdf::23                    578                       # What write queue length does an incoming req see
system.mem_ctrls.wrQLenPdf::24                    582                       # What write queue length does an incoming req see
system.mem_ctrls.wrQLenPdf::25                    594                       # What write queue length does an incoming req see
system.mem_ctrls.wrQLenPdf::26                    638                       # What write queue length does an incoming req see
system.mem_ctrls.wrQLenPdf::27                    596                       # What write queue length does an incoming req see
system.mem_ctrls.wrQLenPdf::28                    598                       # What write queue length does an incoming req see
system.mem_ctrls.wrQLenPdf::29                    618                       # What write queue length does an incoming req see
system.mem_ctrls.wrQLenPdf::30                    585                       # What write queue length does an incoming req see
system.mem_ctrls.wrQLenPdf::31                    565                       # What write queue length does an incoming req see
system.mem_ctrls.wrQLenPdf::32                    559                       # What write queue length does an incoming req see
system.mem_ctrls.wrQLenPdf::33                      1                       # What write queue length does an incoming req see
system.mem_ctrls.wrQLenPdf::34                      1                       # What write queue length does an incoming req see
system.mem_ctrls.wrQLenPdf::35                      1                       # What write queue length does an incoming req see
system.mem_ctrls.wrQLenPdf::36                      0                       # What write queue length does an incoming req see
system.mem_ctrls.wrQLenPdf::37                      0                       # What write queue length does an incoming req see
system.mem_ctrls.wrQLenPdf::38                      0                       # What write queue length does an incoming req see
system.mem_ctrls.wrQLenPdf::39                      0                       # What write queue length does an incoming req see
system.mem_ctrls.wrQLenPdf::40                      0                       # What write queue length does an incoming req see
system.mem_ctrls.wrQLenPdf::41                      0                       # What write queue length does an incoming req see
system.mem_ctrls.wrQLenPdf::42                      0                       # What write queue length does an incoming req see
system.mem_ctrls.wrQLenPdf::43                      0                       # What write queue length does an incoming req see
system.mem_ctrls.wrQLenPdf::44                      0                       # What write queue length does an incoming req see
system.mem_ctrls.wrQLenPdf::45                      0                       # What write queue length does an incoming req see
system.mem_ctrls.wrQLenPdf::46                      0                       # What write queue length does an incoming req see
system.mem_ctrls.wrQLenPdf::47                      0                       # What write queue length does an incoming req see
system.mem_ctrls.wrQLenPdf::48                      0                       # What write queue length does an incoming req see
system.mem_ctrls.wrQLenPdf::49                      0                       # What write queue length does an incoming req see
system.mem_ctrls.wrQLenPdf::50                      0                       # What write queue length does an incoming req see
system.mem_ctrls.wrQLenPdf::51                      0                       # What write queue length does an incoming req see
system.mem_ctrls.wrQLenPdf::52                      0                       # What write queue length does an incoming req see
system.mem_ctrls.wrQLenPdf::53                      0                       # What write queue length does an incoming req see
system.mem_ctrls.wrQLenPdf::54                      0                       # What write queue length does an incoming req see
system.mem_ctrls.wrQLenPdf::55                      0                       # What write queue length does an incoming req see
system.mem_ctrls.wrQLenPdf::56                      0                       # What write queue length does an incoming req see
system.mem_ctrls.wrQLenPdf::57                      0                       # What write queue length does an incoming req see
system.mem_ctrls.wrQLenPdf::58                      0                       # What write queue length does an incoming req see
system.mem_ctrls.wrQLenPdf::59                      0                       # What write queue length does an incoming req see
system.mem_ctrls.wrQLenPdf::60                      0                       # What write queue length does an incoming req see
system.mem_ctrls.wrQLenPdf::61                      0                       # What write queue length does an incoming req see
system.mem_ctrls.wrQLenPdf::62                      0                       # What write queue length does an incoming req see
system.mem_ctrls.wrQLenPdf::63                      0                       # What write queue length does an incoming req see
system.mem_ctrls.bytesPerActivate::samples         6597                       # Bytes accessed per row activation
system.mem_ctrls.bytesPerActivate::mean    277.750493                       # Bytes accessed per row activation
system.mem_ctrls.bytesPerActivate::gmean   168.990429                       # Bytes accessed per row activation
system.mem_ctrls.bytesPerActivate::stdev   302.714261                       # Bytes accessed per row activation
system.mem_ctrls.bytesPerActivate::0-127         2501     37.91%     37.91% # Bytes accessed per row activation
system.mem_ctrls.bytesPerActivate::128-255         1734     26.28%     64.20% # Bytes accessed per row activation
system.mem_ctrls.bytesPerActivate::256-383          776     11.76%     75.96% # Bytes accessed per row activation
system.mem_ctrls.bytesPerActivate::384-511          372      5.64%     81.60% # Bytes accessed per row activation
system.mem_ctrls.bytesPerActivate::512-639          239      3.62%     85.22% # Bytes accessed per row activation
system.mem_ctrls.bytesPerActivate::640-767          150      2.27%     87.49% # Bytes accessed per row activation
system.mem_ctrls.bytesPerActivate::768-895          121      1.83%     89.33% # Bytes accessed per row activation
system.mem_ctrls.bytesPerActivate::896-1023           79      1.20%     90.53% # Bytes accessed per row activation
system.mem_ctrls.bytesPerActivate::1024-1151          625      9.47%    100.00% # Bytes accessed per row activation
system.mem_ctrls.bytesPerActivate::total         6597                       # Bytes accessed per row activation
system.mem_ctrls.rdPerTurnAround::samples          558                       # Reads before turning the bus around for writes
system.mem_ctrls.rdPerTurnAround::mean      35.116487                       # Reads before turning the bus around for writes
system.mem_ctrls.rdPerTurnAround::gmean     30.260131                       # Reads before turning the bus around for writes
system.mem_ctrls.rdPerTurnAround::stdev     23.327403                       # Reads before turning the bus around for writes
system.mem_ctrls.rdPerTurnAround::0-15             25      4.48%      4.48% # Reads before turning the bus around for writes
system.mem_ctrls.rdPerTurnAround::16-31           277     49.64%     54.12% # Reads before turning the bus around for writes
system.mem_ctrls.rdPerTurnAround::32-47           146     26.16%     80.29% # Reads before turning the bus around for writes
system.mem_ctrls.rdPerTurnAround::48-63            62     11.11%     91.40% # Reads before turning the bus around for writes
system.mem_ctrls.rdPerTurnAround::64-79            27      4.84%     96.24% # Reads before turning the bus around for writes
system.mem_ctrls.rdPerTurnAround::80-95             9      1.61%     97.85% # Reads before turning the bus around for writes
system.mem_ctrls.rdPerTurnAround::96-111            5      0.90%     98.75% # Reads before turning the bus around for writes
system.mem_ctrls.rdPerTurnAround::112-127            2      0.36%     99.10% # Reads before turning the bus around for writes
system.mem_ctrls.rdPerTurnAround::128-143            2      0.36%     99.46% # Reads before turning the bus around for writes
system.mem_ctrls.rdPerTurnAround::144-159            2      0.36%     99.82% # Reads before turning the bus around for writes
system.mem_ctrls.rdPerTurnAround::272-287            1      0.18%    100.00% # Reads before turning the bus around for writes
system.mem_ctrls.rdPerTurnAround::total           558                       # Reads before turning the bus around for writes
system.mem_ctrls.wrPerTurnAround::samples          558                       # Writes before turning the bus around for reads
system.mem_ctrls.wrPerTurnAround::mean      16.258065                       # Writes before turning the bus around for reads
system.mem_ctrls.wrPerTurnAround::gmean     16.241697                       # Writes before turning the bus around for reads
system.mem_ctrls.wrPerTurnAround::stdev      0.763671                       # Writes before turning the bus around for reads
system.mem_ctrls.wrPerTurnAround::16              493     88.35%     88.35% # Writes before turning the bus around for reads
system.mem_ctrls.wrPerTurnAround::17                9      1.61%     89.96% # Writes before turning the bus around for reads
system.mem_ctrls.wrPerTurnAround::18               38      6.81%     96.77% # Writes before turning the bus around for reads
system.mem_ctrls.wrPerTurnAround::19               15      2.69%     99.46% # Writes before turning the bus around for reads
system.mem_ctrls.wrPerTurnAround::20                1      0.18%     99.64% # Writes before turning the bus around for reads
system.mem_ctrls.wrPerTurnAround::21                2      0.36%    100.00% # Writes before turning the bus around for reads
system.mem_ctrls.wrPerTurnAround::total           558                       # Writes before turning the bus around for reads
system.mem_ctrls.totQLat                    331809500                       # Total ticks spent queuing
system.mem_ctrls.totMemAccLat               699590750                       # Total ticks spent from burst creation until serviced by the DRAM
system.mem_ctrls.totBusLat                   98075000                       # Total ticks spent in databus transfers
system.mem_ctrls.avgQLat                     16916.11                       # Average queueing delay per DRAM burst
system.mem_ctrls.avgBusLat                    5000.00                       # Average bus latency per DRAM burst
system.mem_ctrls.avgMemAccLat                35666.11                       # Average memory access latency per DRAM burst
system.mem_ctrls.avgRdBW                      1101.45                       # Average DRAM read bandwidth in MiByte/s
system.mem_ctrls.avgWrBW                       509.43                       # Average achieved write bandwidth in MiByte/s
system.mem_ctrls.avgRdBWSys                   1102.07                       # Average system read bandwidth in MiByte/s
system.mem_ctrls.avgWrBWSys                    511.05                       # Average system write bandwidth in MiByte/s
system.mem_ctrls.peakBW                      12800.00                       # Theoretical peak bandwidth in MiByte/s
system.mem_ctrls.busUtil                        12.58                       # Data bus utilization in percentage
system.mem_ctrls.busUtilRead                     8.61                       # Data bus utilization in percentage for reads
system.mem_ctrls.busUtilWrite                    3.98                       # Data bus utilization in percentage for writes
system.mem_ctrls.avgRdQLen                       1.78                       # Average read queue length when enqueuing
system.mem_ctrls.avgWrQLen                      25.39                       # Average write queue length when enqueuing
system.mem_ctrls.readRowHits                    15597                       # Number of row buffer hits during reads
system.mem_ctrls.writeRowHits                    6478                       # Number of row buffer hits during writes
system.mem_ctrls.readRowHitRate                 79.52                       # Row buffer hit rate for reads
system.mem_ctrls.writeRowHitRate                71.18                       # Row buffer hit rate for writes
system.mem_ctrls.avgGap                      39673.20                       # Average gap between requests
system.mem_ctrls.pageHitRate                    76.87                       # Row buffer hit rate, read and write combined
system.mem_ctrls_0.actEnergy                 25673760                       # Energy for activate commands per rank (pJ)
system.mem_ctrls_0.preEnergy                 14008500                       # Energy for precharge commands per rank (pJ)
system.mem_ctrls_0.readEnergy                75800400                       # Energy for read commands per rank (pJ)
system.mem_ctrls_0.writeEnergy               36599040                       # Energy for write commands per rank (pJ)
system.mem_ctrls_0.refreshEnergy             74249760                       # Energy for refresh commands per rank (pJ)
system.mem_ctrls_0.actBackEnergy            720620505                       # Energy for active background per rank (pJ)
system.mem_ctrls_0.preBackEnergy             50108250                       # Energy for precharge background per rank (pJ)
system.mem_ctrls_0.totalEnergy              997060215                       # Total energy per rank (pJ)
system.mem_ctrls_0.averagePower            876.881424                       # Core power per rank (mW)
system.mem_ctrls_0.memoryStateTime::IDLE     78424750                       # Time in different power states
system.mem_ctrls_0.memoryStateTime::REF      37960000                       # Time in different power states
system.mem_ctrls_0.memoryStateTime::PRE_PDN            0                       # Time in different power states
system.mem_ctrls_0.memoryStateTime::ACT    1020681500                       # Time in different power states
system.mem_ctrls_0.memoryStateTime::ACT_PDN            0                       # Time in different power states
system.mem_ctrls_1.actEnergy                 24101280                       # Energy for activate commands per rank (pJ)
system.mem_ctrls_1.preEnergy                 13150500                       # Energy for precharge commands per rank (pJ)
system.mem_ctrls_1.readEnergy                76822200                       # Energy for read commands per rank (pJ)
system.mem_ctrls_1.writeEnergy               21980160                       # Energy for write commands per rank (pJ)
system.mem_ctrls_1.refreshEnergy             74249760                       # Energy for refresh commands per rank (pJ)
system.mem_ctrls_1.actBackEnergy            747001530                       # Energy for active background per rank (pJ)
system.mem_ctrls_1.preBackEnergy             26967000                       # Energy for precharge background per rank (pJ)
system.mem_ctrls_1.totalEnergy              984272430                       # Total energy per rank (pJ)
system.mem_ctrls_1.averagePower            865.634990                       # Core power per rank (mW)
system.mem_ctrls_1.memoryStateTime::IDLE     40046250                       # Time in different power states
system.mem_ctrls_1.memoryStateTime::REF      37960000                       # Time in different power states
system.mem_ctrls_1.memoryStateTime::PRE_PDN            0                       # Time in different power states
system.mem_ctrls_1.memoryStateTime::ACT    1059060000                       # Time in different power states
system.mem_ctrls_1.memoryStateTime::ACT_PDN            0                       # Time in different power states
system.cpu_voltage_domain.voltage                   1                       # Voltage in Volts
system.cpu_clk_domain.clock                       500                       # Clock period in ticks
system.cpu.dtb.fetch_hits                           0                       # ITB hits
system.cpu.dtb.fetch_misses                         0                       # ITB misses
system.cpu.dtb.fetch_acv                            0                       # ITB acv
system.cpu.dtb.fetch_accesses                       0                       # ITB accesses
system.cpu.dtb.read_hits                            0                       # DTB read hits
system.cpu.dtb.read_misses                          0                       # DTB read misses
system.cpu.dtb.read_acv                             0                       # DTB read access violations
system.cpu.dtb.read_accesses                        0                       # DTB read accesses
system.cpu.dtb.write_hits                           0                       # DTB write hits
system.cpu.dtb.write_misses                         0                       # DTB write misses
system.cpu.dtb.write_acv                            0                       # DTB write access violations
system.cpu.dtb.write_accesses                       0                       # DTB write accesses
system.cpu.dtb.data_hits                            0                       # DTB hits
system.cpu.dtb.data_misses                          0                       # DTB misses
system.cpu.dtb.data_acv                             0                       # DTB access violations
system.cpu.dtb.data_accesses                        0                       # DTB accesses
system.cpu.itb.fetch_hits                           0                       # ITB hits
system.cpu.itb.fetch_misses                         0                       # ITB misses
system.cpu.itb.fetch_acv                            0                       # ITB acv
system.cpu.itb.fetch_accesses                       0                       # ITB accesses
system.cpu.itb.read_hits                            0                       # DTB read hits
system.cpu.itb.read_misses                          0                       # DTB read misses
system.cpu.itb.read_acv                             0                       # DTB read access violations
system.cpu.itb.read_accesses                        0                       # DTB read accesses
system.cpu.itb.write_hits                           0                       # DTB write hits
system.cpu.itb.write_misses                         0                       # DTB write misses
system.cpu.itb.write_acv                            0                       # DTB write access violations
system.cpu.itb.write_accesses                       0                       # DTB write accesses
system.cpu.itb.data_hits                            0                       # DTB hits
system.cpu.itb.data_misses                          0                       # DTB misses
system.cpu.itb.data_acv                             0                       # DTB access violations
system.cpu.itb.data_accesses                        0                       # DTB accesses
system.cpu.numCycles                                0                       # number of cpu cycles simulated
system.cpu.numWorkItemsStarted                      0                       # number of work items this cpu started
system.cpu.numWorkItemsCompleted                    0                       # number of work items this cpu completed
system.cpu.committedInsts                           0                       # Number of instructions committed
system.cpu.committedOps                             0                       # Number of ops (including micro ops) committed
system.cpu.num_int_alu_accesses                     0                       # Number of integer alu accesses
system.cpu.num_fp_alu_accesses                      0                       # Number of float alu accesses
system.cpu.num_func_calls                           0                       # number of times a function call or return occured
system.cpu.num_conditional_control_insts            0                       # number of instructions that are conditional controls
system.cpu.num_int_insts                            0                       # number of integer instructions
system.cpu.num_fp_insts                             0                       # number of float instructions
system.cpu.num_int_register_reads                   0                       # number of times the integer registers were read
system.cpu.num_int_register_writes                  0                       # number of times the integer registers were written
system.cpu.num_fp_register_reads                    0                       # number of times the floating registers were read
system.cpu.num_fp_register_writes                   0                       # number of times the floating registers were written
system.cpu.num_mem_refs                             0                       # number of memory refs
system.cpu.num_load_insts                           0                       # Number of load instructions
system.cpu.num_store_insts                          0                       # Number of store instructions
system.cpu.num_idle_cycles                          0                       # Number of idle cycles
system.cpu.num_busy_cycles                          0                       # Number of busy cycles
system.cpu.not_idle_fraction                        1                       # Percentage of non-idle cycles
system.cpu.idle_fraction                            0                       # Percentage of idle cycles
system.cpu.op_class::No_OpClass                     0                       # Class of executed instruction
system.cpu.op_class::IntAlu                         0                       # Class of executed instruction
system.cpu.op_class::IntMult                        0                       # Class of executed instruction
system.cpu.op_class::IntDiv                         0                       # Class of executed instruction
system.cpu.op_class::FloatAdd                       0                       # Class of executed instruction
system.cpu.op_class::FloatCmp                       0                       # Class of executed instruction
system.cpu.op_class::FloatCvt                       0                       # Class of executed instruction
system.cpu.op_class::FloatMult                      0                       # Class of executed instruction
system.cpu.op_class::FloatDiv                       0                       # Class of executed instruction
system.cpu.op_class::FloatSqrt                      0                       # Class of executed instruction
system.cpu.op_class::SimdAdd                        0                       # Class of executed instruction
system.cpu.op_class::SimdAddAcc                     0                       # Class of executed instruction
system.cpu.op_class::SimdAlu                        0                       # Class of executed instruction
system.cpu.op_class::SimdCmp                        0                       # Class of executed instruction
system.cpu.op_class::SimdCvt                        0                       # Class of executed instruction
system.cpu.op_class::SimdMisc                       0                       # Class of executed instruction
system.cpu.op_class::SimdMult                       0                       # Class of executed instruction
system.cpu.op_class::SimdMultAcc                    0                       # Class of executed instruction
system.cpu.op_class::SimdShift                      0                       # Class of executed instruction
system.cpu.op_class::SimdShiftAcc                   0                       # Class of executed instruction
system.cpu.op_class::SimdSqrt                       0                       # Class of executed instruction
system.cpu.op_class::SimdFloatAdd                   0                       # Class of executed instruction
system.cpu.op_class::SimdFloatAlu                   0                       # Class of executed instruction
system.cpu.op_class::SimdFloatCmp                   0                       # Class of executed instruction
system.cpu.op_class::SimdFloatCvt                   0                       # Class of executed instruction
system.cpu.op_class::SimdFloatDiv                   0                       # Class of executed instruction
system.cpu.op_class::SimdFloatMisc                  0                       # Class of executed instruction
system.cpu.op_class::SimdFloatMult                  0                       # Class of executed instruction
system.cpu.op_class::SimdFloatMultAcc               0                       # Class of executed instruction
system.cpu.op_class::SimdFloatSqrt                  0                       # Class of executed instruction
system.cpu.op_class::MemRead                        0                       # Class of executed instruction
system.cpu.op_class::MemWrite                       0                       # Class of executed instruction
system.cpu.op_class::IprAccess                      0                       # Class of executed instruction
system.cpu.op_class::InstPrefetch                   0                       # Class of executed instruction
system.cpu.op_class::total                          0                       # Class of executed instruction
system.cpu.kern.inst.arm                            0                       # number of arm instructions executed
system.cpu.kern.inst.quiesce                        0                       # number of quiesce instructions executed
system.cpu.kern.inst.hwrei                       2781                       # number of hwrei instructions executed
system.cpu.kern.ipl_count::0                      635     49.15%     49.15% # number of times we switched to this ipl
system.cpu.kern.ipl_count::22                       1      0.08%     49.23% # number of times we switched to this ipl
system.cpu.kern.ipl_count::31                     656     50.77%    100.00% # number of times we switched to this ipl
system.cpu.kern.ipl_count::total                 1292                       # number of times we switched to this ipl
system.cpu.kern.ipl_good::0                       633     49.96%     49.96% # number of times we switched to this ipl from a different ipl
system.cpu.kern.ipl_good::22                        1      0.08%     50.04% # number of times we switched to this ipl from a different ipl
system.cpu.kern.ipl_good::31                      633     49.96%    100.00% # number of times we switched to this ipl from a different ipl
system.cpu.kern.ipl_good::total                  1267                       # number of times we switched to this ipl from a different ipl
system.cpu.kern.ipl_ticks::0               1041334000     91.47%     91.47% # number of cycles we spent at this ipl
system.cpu.kern.ipl_ticks::22                 1448000      0.13%     91.60% # number of cycles we spent at this ipl
system.cpu.kern.ipl_ticks::31                95644000      8.40%    100.00% # number of cycles we spent at this ipl
system.cpu.kern.ipl_ticks::total           1138426000                       # number of cycles we spent at this ipl
system.cpu.kern.ipl_used::0                  0.996850                       # fraction of swpipl calls that actually changed the ipl
system.cpu.kern.ipl_used::22                        1                       # fraction of swpipl calls that actually changed the ipl
system.cpu.kern.ipl_used::31                 0.964939                       # fraction of swpipl calls that actually changed the ipl
system.cpu.kern.ipl_used::total              0.980650                       # fraction of swpipl calls that actually changed the ipl
system.cpu.kern.syscall::2                          1      5.56%      5.56% # number of syscalls executed
system.cpu.kern.syscall::3                          2     11.11%     16.67% # number of syscalls executed
system.cpu.kern.syscall::6                          2     11.11%     27.78% # number of syscalls executed
system.cpu.kern.syscall::17                         1      5.56%     33.33% # number of syscalls executed
system.cpu.kern.syscall::19                         1      5.56%     38.89% # number of syscalls executed
system.cpu.kern.syscall::33                         1      5.56%     44.44% # number of syscalls executed
system.cpu.kern.syscall::45                         3     16.67%     61.11% # number of syscalls executed
system.cpu.kern.syscall::48                         1      5.56%     66.67% # number of syscalls executed
system.cpu.kern.syscall::59                         1      5.56%     72.22% # number of syscalls executed
system.cpu.kern.syscall::71                         4     22.22%     94.44% # number of syscalls executed
system.cpu.kern.syscall::74                         1      5.56%    100.00% # number of syscalls executed
system.cpu.kern.syscall::total                     18                       # number of syscalls executed
system.cpu.kern.callpal::swpctx                   118      8.10%      8.10% # number of callpals executed
system.cpu.kern.callpal::tbi                        6      0.41%      8.51% # number of callpals executed
system.cpu.kern.callpal::swpipl                  1107     75.98%     84.49% # number of callpals executed
system.cpu.kern.callpal::rdps                       3      0.21%     84.69% # number of callpals executed
system.cpu.kern.callpal::wrusp                      1      0.07%     84.76% # number of callpals executed
system.cpu.kern.callpal::rdusp                      1      0.07%     84.83% # number of callpals executed
system.cpu.kern.callpal::rti                      184     12.63%     97.46% # number of callpals executed
system.cpu.kern.callpal::callsys                   33      2.26%     99.73% # number of callpals executed
system.cpu.kern.callpal::imb                        4      0.27%    100.00% # number of callpals executed
system.cpu.kern.callpal::total                   1457                       # number of callpals executed
system.cpu.kern.mode_switch::kernel               302                       # number of protection mode switches
system.cpu.kern.mode_switch::user                 181                       # number of protection mode switches
system.cpu.kern.mode_switch::idle                   0                       # number of protection mode switches
system.cpu.kern.mode_good::kernel                 181                      
system.cpu.kern.mode_good::user                   181                      
system.cpu.kern.mode_good::idle                     0                      
system.cpu.kern.mode_switch_good::kernel     0.599338                       # fraction of useful protection mode switches
system.cpu.kern.mode_switch_good::user              1                       # fraction of useful protection mode switches
system.cpu.kern.mode_switch_good::idle            nan                       # fraction of useful protection mode switches
system.cpu.kern.mode_switch_good::total      0.749482                       # fraction of useful protection mode switches
system.cpu.kern.mode_ticks::kernel          779173500     68.44%     68.44% # number of ticks spent at the given mode
system.cpu.kern.mode_ticks::user            359245500     31.56%    100.00% # number of ticks spent at the given mode
system.cpu.kern.mode_ticks::idle                    0      0.00%    100.00% # number of ticks spent at the given mode
system.cpu.kern.swap_context                      118                       # number of times the context was actually changed
system.cpu.dcache.tags.replacements             22543                       # number of replacements
system.cpu.dcache.tags.tagsinuse                  256                       # Cycle average of tags in use
system.cpu.dcache.tags.total_refs              189264                       # Total number of references to valid blocks.
system.cpu.dcache.tags.sampled_refs             22543                       # Sample count of references to valid blocks.
system.cpu.dcache.tags.avg_refs              8.395688                       # Average number of references to valid blocks.
system.cpu.dcache.tags.warmup_cycle                 0                       # Cycle when the warmup percentage was hit.
system.cpu.dcache.tags.occ_blocks::cpu.data     6.838266                       # Average occupied blocks per requestor
system.cpu.dcache.tags.occ_blocks::switch_cpus.data   249.161734                       # Average occupied blocks per requestor
system.cpu.dcache.tags.occ_percent::cpu.data     0.026712                       # Average percentage of cache occupancy
system.cpu.dcache.tags.occ_percent::switch_cpus.data     0.973288                       # Average percentage of cache occupancy
system.cpu.dcache.tags.occ_percent::total            1                       # Average percentage of cache occupancy
system.cpu.dcache.tags.occ_task_id_blocks::1024          256                       # Occupied blocks per task id
system.cpu.dcache.tags.age_task_id_blocks_1024::0           86                       # Occupied blocks per task id
system.cpu.dcache.tags.age_task_id_blocks_1024::1          150                       # Occupied blocks per task id
system.cpu.dcache.tags.age_task_id_blocks_1024::2           20                       # Occupied blocks per task id
system.cpu.dcache.tags.occ_task_id_percent::1024            1                       # Percentage of cache occupancy per task id
system.cpu.dcache.tags.tag_accesses           1190503                       # Number of tag accesses
system.cpu.dcache.tags.data_accesses          1190503                       # Number of data accesses
system.cpu.dcache.ReadReq_hits::switch_cpus.data       128458                       # number of ReadReq hits
system.cpu.dcache.ReadReq_hits::total          128458                       # number of ReadReq hits
system.cpu.dcache.WriteReq_hits::switch_cpus.data        56986                       # number of WriteReq hits
system.cpu.dcache.WriteReq_hits::total          56986                       # number of WriteReq hits
system.cpu.dcache.LoadLockedReq_hits::switch_cpus.data         2051                       # number of LoadLockedReq hits
system.cpu.dcache.LoadLockedReq_hits::total         2051                       # number of LoadLockedReq hits
system.cpu.dcache.StoreCondReq_hits::switch_cpus.data         2378                       # number of StoreCondReq hits
system.cpu.dcache.StoreCondReq_hits::total         2378                       # number of StoreCondReq hits
system.cpu.dcache.demand_hits::switch_cpus.data       185444                       # number of demand (read+write) hits
system.cpu.dcache.demand_hits::total           185444                       # number of demand (read+write) hits
system.cpu.dcache.overall_hits::switch_cpus.data       185444                       # number of overall hits
system.cpu.dcache.overall_hits::total          185444                       # number of overall hits
system.cpu.dcache.ReadReq_misses::switch_cpus.data        32279                       # number of ReadReq misses
system.cpu.dcache.ReadReq_misses::total         32279                       # number of ReadReq misses
system.cpu.dcache.WriteReq_misses::switch_cpus.data        69252                       # number of WriteReq misses
system.cpu.dcache.WriteReq_misses::total        69252                       # number of WriteReq misses
system.cpu.dcache.LoadLockedReq_misses::switch_cpus.data          586                       # number of LoadLockedReq misses
system.cpu.dcache.LoadLockedReq_misses::total          586                       # number of LoadLockedReq misses
system.cpu.dcache.demand_misses::switch_cpus.data       101531                       # number of demand (read+write) misses
system.cpu.dcache.demand_misses::total         101531                       # number of demand (read+write) misses
system.cpu.dcache.overall_misses::switch_cpus.data       101531                       # number of overall misses
system.cpu.dcache.overall_misses::total        101531                       # number of overall misses
system.cpu.dcache.ReadReq_miss_latency::switch_cpus.data   1609866747                       # number of ReadReq miss cycles
system.cpu.dcache.ReadReq_miss_latency::total   1609866747                       # number of ReadReq miss cycles
system.cpu.dcache.WriteReq_miss_latency::switch_cpus.data   4834003091                       # number of WriteReq miss cycles
system.cpu.dcache.WriteReq_miss_latency::total   4834003091                       # number of WriteReq miss cycles
system.cpu.dcache.LoadLockedReq_miss_latency::switch_cpus.data     25235250                       # number of LoadLockedReq miss cycles
system.cpu.dcache.LoadLockedReq_miss_latency::total     25235250                       # number of LoadLockedReq miss cycles
system.cpu.dcache.demand_miss_latency::switch_cpus.data   6443869838                       # number of demand (read+write) miss cycles
system.cpu.dcache.demand_miss_latency::total   6443869838                       # number of demand (read+write) miss cycles
system.cpu.dcache.overall_miss_latency::switch_cpus.data   6443869838                       # number of overall miss cycles
system.cpu.dcache.overall_miss_latency::total   6443869838                       # number of overall miss cycles
system.cpu.dcache.ReadReq_accesses::switch_cpus.data       160737                       # number of ReadReq accesses(hits+misses)
system.cpu.dcache.ReadReq_accesses::total       160737                       # number of ReadReq accesses(hits+misses)
system.cpu.dcache.WriteReq_accesses::switch_cpus.data       126238                       # number of WriteReq accesses(hits+misses)
system.cpu.dcache.WriteReq_accesses::total       126238                       # number of WriteReq accesses(hits+misses)
system.cpu.dcache.LoadLockedReq_accesses::switch_cpus.data         2637                       # number of LoadLockedReq accesses(hits+misses)
system.cpu.dcache.LoadLockedReq_accesses::total         2637                       # number of LoadLockedReq accesses(hits+misses)
system.cpu.dcache.StoreCondReq_accesses::switch_cpus.data         2378                       # number of StoreCondReq accesses(hits+misses)
system.cpu.dcache.StoreCondReq_accesses::total         2378                       # number of StoreCondReq accesses(hits+misses)
system.cpu.dcache.demand_accesses::switch_cpus.data       286975                       # number of demand (read+write) accesses
system.cpu.dcache.demand_accesses::total       286975                       # number of demand (read+write) accesses
system.cpu.dcache.overall_accesses::switch_cpus.data       286975                       # number of overall (read+write) accesses
system.cpu.dcache.overall_accesses::total       286975                       # number of overall (read+write) accesses
system.cpu.dcache.ReadReq_miss_rate::switch_cpus.data     0.200819                       # miss rate for ReadReq accesses
system.cpu.dcache.ReadReq_miss_rate::total     0.200819                       # miss rate for ReadReq accesses
system.cpu.dcache.WriteReq_miss_rate::switch_cpus.data     0.548583                       # miss rate for WriteReq accesses
system.cpu.dcache.WriteReq_miss_rate::total     0.548583                       # miss rate for WriteReq accesses
system.cpu.dcache.LoadLockedReq_miss_rate::switch_cpus.data     0.222222                       # miss rate for LoadLockedReq accesses
system.cpu.dcache.LoadLockedReq_miss_rate::total     0.222222                       # miss rate for LoadLockedReq accesses
system.cpu.dcache.demand_miss_rate::switch_cpus.data     0.353797                       # miss rate for demand accesses
system.cpu.dcache.demand_miss_rate::total     0.353797                       # miss rate for demand accesses
system.cpu.dcache.overall_miss_rate::switch_cpus.data     0.353797                       # miss rate for overall accesses
system.cpu.dcache.overall_miss_rate::total     0.353797                       # miss rate for overall accesses
system.cpu.dcache.ReadReq_avg_miss_latency::switch_cpus.data 49873.501255                       # average ReadReq miss latency
system.cpu.dcache.ReadReq_avg_miss_latency::total 49873.501255                       # average ReadReq miss latency
system.cpu.dcache.WriteReq_avg_miss_latency::switch_cpus.data 69803.082813                       # average WriteReq miss latency
system.cpu.dcache.WriteReq_avg_miss_latency::total 69803.082813                       # average WriteReq miss latency
system.cpu.dcache.LoadLockedReq_avg_miss_latency::switch_cpus.data 43063.566553                       # average LoadLockedReq miss latency
system.cpu.dcache.LoadLockedReq_avg_miss_latency::total 43063.566553                       # average LoadLockedReq miss latency
system.cpu.dcache.demand_avg_miss_latency::switch_cpus.data 63467.018329                       # average overall miss latency
system.cpu.dcache.demand_avg_miss_latency::total 63467.018329                       # average overall miss latency
system.cpu.dcache.overall_avg_miss_latency::switch_cpus.data 63467.018329                       # average overall miss latency
system.cpu.dcache.overall_avg_miss_latency::total 63467.018329                       # average overall miss latency
system.cpu.dcache.blocked_cycles::no_mshrs       399721                       # number of cycles access was blocked
system.cpu.dcache.blocked_cycles::no_targets           70                       # number of cycles access was blocked
system.cpu.dcache.blocked::no_mshrs              7860                       # number of cycles access was blocked
system.cpu.dcache.blocked::no_targets               1                       # number of cycles access was blocked
system.cpu.dcache.avg_blocked_cycles::no_mshrs    50.855089                       # average number of cycles each access was blocked
system.cpu.dcache.avg_blocked_cycles::no_targets           70                       # average number of cycles each access was blocked
system.cpu.dcache.fast_writes                       0                       # number of fast writes performed
system.cpu.dcache.cache_copies                      0                       # number of cache copies performed
system.cpu.dcache.writebacks::writebacks        13911                       # number of writebacks
system.cpu.dcache.writebacks::total             13911                       # number of writebacks
system.cpu.dcache.ReadReq_mshr_hits::switch_cpus.data        19659                       # number of ReadReq MSHR hits
system.cpu.dcache.ReadReq_mshr_hits::total        19659                       # number of ReadReq MSHR hits
system.cpu.dcache.WriteReq_mshr_hits::switch_cpus.data        59713                       # number of WriteReq MSHR hits
system.cpu.dcache.WriteReq_mshr_hits::total        59713                       # number of WriteReq MSHR hits
system.cpu.dcache.LoadLockedReq_mshr_hits::switch_cpus.data          199                       # number of LoadLockedReq MSHR hits
system.cpu.dcache.LoadLockedReq_mshr_hits::total          199                       # number of LoadLockedReq MSHR hits
system.cpu.dcache.demand_mshr_hits::switch_cpus.data        79372                       # number of demand (read+write) MSHR hits
system.cpu.dcache.demand_mshr_hits::total        79372                       # number of demand (read+write) MSHR hits
system.cpu.dcache.overall_mshr_hits::switch_cpus.data        79372                       # number of overall MSHR hits
system.cpu.dcache.overall_mshr_hits::total        79372                       # number of overall MSHR hits
system.cpu.dcache.ReadReq_mshr_misses::switch_cpus.data        12620                       # number of ReadReq MSHR misses
system.cpu.dcache.ReadReq_mshr_misses::total        12620                       # number of ReadReq MSHR misses
system.cpu.dcache.WriteReq_mshr_misses::switch_cpus.data         9539                       # number of WriteReq MSHR misses
system.cpu.dcache.WriteReq_mshr_misses::total         9539                       # number of WriteReq MSHR misses
system.cpu.dcache.LoadLockedReq_mshr_misses::switch_cpus.data          387                       # number of LoadLockedReq MSHR misses
system.cpu.dcache.LoadLockedReq_mshr_misses::total          387                       # number of LoadLockedReq MSHR misses
system.cpu.dcache.demand_mshr_misses::switch_cpus.data        22159                       # number of demand (read+write) MSHR misses
system.cpu.dcache.demand_mshr_misses::total        22159                       # number of demand (read+write) MSHR misses
system.cpu.dcache.overall_mshr_misses::switch_cpus.data        22159                       # number of overall MSHR misses
system.cpu.dcache.overall_mshr_misses::total        22159                       # number of overall MSHR misses
system.cpu.dcache.WriteReq_mshr_uncacheable::switch_cpus.data            1                       # number of WriteReq MSHR uncacheable
system.cpu.dcache.WriteReq_mshr_uncacheable::total            1                       # number of WriteReq MSHR uncacheable
system.cpu.dcache.overall_mshr_uncacheable_misses::switch_cpus.data            1                       # number of overall MSHR uncacheable misses
system.cpu.dcache.overall_mshr_uncacheable_misses::total            1                       # number of overall MSHR uncacheable misses
system.cpu.dcache.ReadReq_mshr_miss_latency::switch_cpus.data    594644003                       # number of ReadReq MSHR miss cycles
system.cpu.dcache.ReadReq_mshr_miss_latency::total    594644003                       # number of ReadReq MSHR miss cycles
system.cpu.dcache.WriteReq_mshr_miss_latency::switch_cpus.data    751818193                       # number of WriteReq MSHR miss cycles
system.cpu.dcache.WriteReq_mshr_miss_latency::total    751818193                       # number of WriteReq MSHR miss cycles
system.cpu.dcache.LoadLockedReq_mshr_miss_latency::switch_cpus.data     14265750                       # number of LoadLockedReq MSHR miss cycles
system.cpu.dcache.LoadLockedReq_mshr_miss_latency::total     14265750                       # number of LoadLockedReq MSHR miss cycles
system.cpu.dcache.demand_mshr_miss_latency::switch_cpus.data   1346462196                       # number of demand (read+write) MSHR miss cycles
system.cpu.dcache.demand_mshr_miss_latency::total   1346462196                       # number of demand (read+write) MSHR miss cycles
system.cpu.dcache.overall_mshr_miss_latency::switch_cpus.data   1346462196                       # number of overall MSHR miss cycles
system.cpu.dcache.overall_mshr_miss_latency::total   1346462196                       # number of overall MSHR miss cycles
system.cpu.dcache.WriteReq_mshr_uncacheable_latency::switch_cpus.data       223500                       # number of WriteReq MSHR uncacheable cycles
system.cpu.dcache.WriteReq_mshr_uncacheable_latency::total       223500                       # number of WriteReq MSHR uncacheable cycles
system.cpu.dcache.overall_mshr_uncacheable_latency::switch_cpus.data       223500                       # number of overall MSHR uncacheable cycles
system.cpu.dcache.overall_mshr_uncacheable_latency::total       223500                       # number of overall MSHR uncacheable cycles
system.cpu.dcache.ReadReq_mshr_miss_rate::switch_cpus.data     0.078513                       # mshr miss rate for ReadReq accesses
system.cpu.dcache.ReadReq_mshr_miss_rate::total     0.078513                       # mshr miss rate for ReadReq accesses
system.cpu.dcache.WriteReq_mshr_miss_rate::switch_cpus.data     0.075564                       # mshr miss rate for WriteReq accesses
system.cpu.dcache.WriteReq_mshr_miss_rate::total     0.075564                       # mshr miss rate for WriteReq accesses
system.cpu.dcache.LoadLockedReq_mshr_miss_rate::switch_cpus.data     0.146758                       # mshr miss rate for LoadLockedReq accesses
system.cpu.dcache.LoadLockedReq_mshr_miss_rate::total     0.146758                       # mshr miss rate for LoadLockedReq accesses
system.cpu.dcache.demand_mshr_miss_rate::switch_cpus.data     0.077216                       # mshr miss rate for demand accesses
system.cpu.dcache.demand_mshr_miss_rate::total     0.077216                       # mshr miss rate for demand accesses
system.cpu.dcache.overall_mshr_miss_rate::switch_cpus.data     0.077216                       # mshr miss rate for overall accesses
system.cpu.dcache.overall_mshr_miss_rate::total     0.077216                       # mshr miss rate for overall accesses
system.cpu.dcache.ReadReq_avg_mshr_miss_latency::switch_cpus.data 47119.176149                       # average ReadReq mshr miss latency
system.cpu.dcache.ReadReq_avg_mshr_miss_latency::total 47119.176149                       # average ReadReq mshr miss latency
system.cpu.dcache.WriteReq_avg_mshr_miss_latency::switch_cpus.data 78815.200021                       # average WriteReq mshr miss latency
system.cpu.dcache.WriteReq_avg_mshr_miss_latency::total 78815.200021                       # average WriteReq mshr miss latency
system.cpu.dcache.LoadLockedReq_avg_mshr_miss_latency::switch_cpus.data 36862.403101                       # average LoadLockedReq mshr miss latency
system.cpu.dcache.LoadLockedReq_avg_mshr_miss_latency::total 36862.403101                       # average LoadLockedReq mshr miss latency
system.cpu.dcache.demand_avg_mshr_miss_latency::switch_cpus.data 60763.671465                       # average overall mshr miss latency
system.cpu.dcache.demand_avg_mshr_miss_latency::total 60763.671465                       # average overall mshr miss latency
system.cpu.dcache.overall_avg_mshr_miss_latency::switch_cpus.data 60763.671465                       # average overall mshr miss latency
system.cpu.dcache.overall_avg_mshr_miss_latency::total 60763.671465                       # average overall mshr miss latency
system.cpu.dcache.WriteReq_avg_mshr_uncacheable_latency::switch_cpus.data       223500                       # average WriteReq mshr uncacheable latency
system.cpu.dcache.WriteReq_avg_mshr_uncacheable_latency::total       223500                       # average WriteReq mshr uncacheable latency
system.cpu.dcache.overall_avg_mshr_uncacheable_latency::switch_cpus.data       223500                       # average overall mshr uncacheable latency
system.cpu.dcache.overall_avg_mshr_uncacheable_latency::total       223500                       # average overall mshr uncacheable latency
system.cpu.dcache.no_allocate_misses                0                       # Number of misses that were no-allocate
system.cpu.icache.tags.replacements             12181                       # number of replacements
system.cpu.icache.tags.tagsinuse           255.992217                       # Cycle average of tags in use
system.cpu.icache.tags.total_refs              254515                       # Total number of references to valid blocks.
system.cpu.icache.tags.sampled_refs             12181                       # Sample count of references to valid blocks.
system.cpu.icache.tags.avg_refs             20.894426                       # Average number of references to valid blocks.
system.cpu.icache.tags.warmup_cycle                 0                       # Cycle when the warmup percentage was hit.
system.cpu.icache.tags.occ_blocks::cpu.inst     4.809662                       # Average occupied blocks per requestor
system.cpu.icache.tags.occ_blocks::switch_cpus.inst   251.182556                       # Average occupied blocks per requestor
system.cpu.icache.tags.occ_percent::cpu.inst     0.018788                       # Average percentage of cache occupancy
system.cpu.icache.tags.occ_percent::switch_cpus.inst     0.981182                       # Average percentage of cache occupancy
system.cpu.icache.tags.occ_percent::total     0.999970                       # Average percentage of cache occupancy
system.cpu.icache.tags.occ_task_id_blocks::1024          256                       # Occupied blocks per task id
system.cpu.icache.tags.age_task_id_blocks_1024::0          102                       # Occupied blocks per task id
system.cpu.icache.tags.age_task_id_blocks_1024::1           22                       # Occupied blocks per task id
system.cpu.icache.tags.age_task_id_blocks_1024::2          132                       # Occupied blocks per task id
system.cpu.icache.tags.occ_task_id_percent::1024            1                       # Percentage of cache occupancy per task id
system.cpu.icache.tags.tag_accesses            672236                       # Number of tag accesses
system.cpu.icache.tags.data_accesses           672236                       # Number of data accesses
system.cpu.icache.ReadReq_hits::switch_cpus.inst       150863                       # number of ReadReq hits
system.cpu.icache.ReadReq_hits::total          150863                       # number of ReadReq hits
system.cpu.icache.demand_hits::switch_cpus.inst       150863                       # number of demand (read+write) hits
system.cpu.icache.demand_hits::total           150863                       # number of demand (read+write) hits
system.cpu.icache.overall_hits::switch_cpus.inst       150863                       # number of overall hits
system.cpu.icache.overall_hits::total          150863                       # number of overall hits
system.cpu.icache.ReadReq_misses::switch_cpus.inst        14150                       # number of ReadReq misses
system.cpu.icache.ReadReq_misses::total         14150                       # number of ReadReq misses
system.cpu.icache.demand_misses::switch_cpus.inst        14150                       # number of demand (read+write) misses
system.cpu.icache.demand_misses::total          14150                       # number of demand (read+write) misses
system.cpu.icache.overall_misses::switch_cpus.inst        14150                       # number of overall misses
system.cpu.icache.overall_misses::total         14150                       # number of overall misses
system.cpu.icache.ReadReq_miss_latency::switch_cpus.inst    644495966                       # number of ReadReq miss cycles
system.cpu.icache.ReadReq_miss_latency::total    644495966                       # number of ReadReq miss cycles
system.cpu.icache.demand_miss_latency::switch_cpus.inst    644495966                       # number of demand (read+write) miss cycles
system.cpu.icache.demand_miss_latency::total    644495966                       # number of demand (read+write) miss cycles
system.cpu.icache.overall_miss_latency::switch_cpus.inst    644495966                       # number of overall miss cycles
system.cpu.icache.overall_miss_latency::total    644495966                       # number of overall miss cycles
system.cpu.icache.ReadReq_accesses::switch_cpus.inst       165013                       # number of ReadReq accesses(hits+misses)
system.cpu.icache.ReadReq_accesses::total       165013                       # number of ReadReq accesses(hits+misses)
system.cpu.icache.demand_accesses::switch_cpus.inst       165013                       # number of demand (read+write) accesses
system.cpu.icache.demand_accesses::total       165013                       # number of demand (read+write) accesses
system.cpu.icache.overall_accesses::switch_cpus.inst       165013                       # number of overall (read+write) accesses
system.cpu.icache.overall_accesses::total       165013                       # number of overall (read+write) accesses
system.cpu.icache.ReadReq_miss_rate::switch_cpus.inst     0.085751                       # miss rate for ReadReq accesses
system.cpu.icache.ReadReq_miss_rate::total     0.085751                       # miss rate for ReadReq accesses
system.cpu.icache.demand_miss_rate::switch_cpus.inst     0.085751                       # miss rate for demand accesses
system.cpu.icache.demand_miss_rate::total     0.085751                       # miss rate for demand accesses
system.cpu.icache.overall_miss_rate::switch_cpus.inst     0.085751                       # miss rate for overall accesses
system.cpu.icache.overall_miss_rate::total     0.085751                       # miss rate for overall accesses
system.cpu.icache.ReadReq_avg_miss_latency::switch_cpus.inst 45547.418092                       # average ReadReq miss latency
system.cpu.icache.ReadReq_avg_miss_latency::total 45547.418092                       # average ReadReq miss latency
system.cpu.icache.demand_avg_miss_latency::switch_cpus.inst 45547.418092                       # average overall miss latency
system.cpu.icache.demand_avg_miss_latency::total 45547.418092                       # average overall miss latency
system.cpu.icache.overall_avg_miss_latency::switch_cpus.inst 45547.418092                       # average overall miss latency
system.cpu.icache.overall_avg_miss_latency::total 45547.418092                       # average overall miss latency
system.cpu.icache.blocked_cycles::no_mshrs         1723                       # number of cycles access was blocked
system.cpu.icache.blocked_cycles::no_targets            0                       # number of cycles access was blocked
system.cpu.icache.blocked::no_mshrs                51                       # number of cycles access was blocked
system.cpu.icache.blocked::no_targets               0                       # number of cycles access was blocked
system.cpu.icache.avg_blocked_cycles::no_mshrs    33.784314                       # average number of cycles each access was blocked
system.cpu.icache.avg_blocked_cycles::no_targets          nan                       # average number of cycles each access was blocked
system.cpu.icache.fast_writes                       0                       # number of fast writes performed
system.cpu.icache.cache_copies                      0                       # number of cache copies performed
system.cpu.icache.ReadReq_mshr_hits::switch_cpus.inst         1966                       # number of ReadReq MSHR hits
system.cpu.icache.ReadReq_mshr_hits::total         1966                       # number of ReadReq MSHR hits
system.cpu.icache.demand_mshr_hits::switch_cpus.inst         1966                       # number of demand (read+write) MSHR hits
system.cpu.icache.demand_mshr_hits::total         1966                       # number of demand (read+write) MSHR hits
system.cpu.icache.overall_mshr_hits::switch_cpus.inst         1966                       # number of overall MSHR hits
system.cpu.icache.overall_mshr_hits::total         1966                       # number of overall MSHR hits
system.cpu.icache.ReadReq_mshr_misses::switch_cpus.inst        12184                       # number of ReadReq MSHR misses
system.cpu.icache.ReadReq_mshr_misses::total        12184                       # number of ReadReq MSHR misses
system.cpu.icache.demand_mshr_misses::switch_cpus.inst        12184                       # number of demand (read+write) MSHR misses
system.cpu.icache.demand_mshr_misses::total        12184                       # number of demand (read+write) MSHR misses
system.cpu.icache.overall_mshr_misses::switch_cpus.inst        12184                       # number of overall MSHR misses
system.cpu.icache.overall_mshr_misses::total        12184                       # number of overall MSHR misses
system.cpu.icache.ReadReq_mshr_miss_latency::switch_cpus.inst    526343273                       # number of ReadReq MSHR miss cycles
system.cpu.icache.ReadReq_mshr_miss_latency::total    526343273                       # number of ReadReq MSHR miss cycles
system.cpu.icache.demand_mshr_miss_latency::switch_cpus.inst    526343273                       # number of demand (read+write) MSHR miss cycles
system.cpu.icache.demand_mshr_miss_latency::total    526343273                       # number of demand (read+write) MSHR miss cycles
system.cpu.icache.overall_mshr_miss_latency::switch_cpus.inst    526343273                       # number of overall MSHR miss cycles
system.cpu.icache.overall_mshr_miss_latency::total    526343273                       # number of overall MSHR miss cycles
system.cpu.icache.ReadReq_mshr_miss_rate::switch_cpus.inst     0.073837                       # mshr miss rate for ReadReq accesses
system.cpu.icache.ReadReq_mshr_miss_rate::total     0.073837                       # mshr miss rate for ReadReq accesses
system.cpu.icache.demand_mshr_miss_rate::switch_cpus.inst     0.073837                       # mshr miss rate for demand accesses
system.cpu.icache.demand_mshr_miss_rate::total     0.073837                       # mshr miss rate for demand accesses
system.cpu.icache.overall_mshr_miss_rate::switch_cpus.inst     0.073837                       # mshr miss rate for overall accesses
system.cpu.icache.overall_mshr_miss_rate::total     0.073837                       # mshr miss rate for overall accesses
system.cpu.icache.ReadReq_avg_mshr_miss_latency::switch_cpus.inst 43199.546372                       # average ReadReq mshr miss latency
system.cpu.icache.ReadReq_avg_mshr_miss_latency::total 43199.546372                       # average ReadReq mshr miss latency
system.cpu.icache.demand_avg_mshr_miss_latency::switch_cpus.inst 43199.546372                       # average overall mshr miss latency
system.cpu.icache.demand_avg_mshr_miss_latency::total 43199.546372                       # average overall mshr miss latency
system.cpu.icache.overall_avg_mshr_miss_latency::switch_cpus.inst 43199.546372                       # average overall mshr miss latency
system.cpu.icache.overall_avg_mshr_miss_latency::total 43199.546372                       # average overall mshr miss latency
system.cpu.icache.no_allocate_misses                0                       # Number of misses that were no-allocate
[...]
system.switch_cpus.iew.wb_producers            468454                       # num instructions producing a value
system.switch_cpus.iew.wb_consumers            624975                       # num instructions consuming a value
system.switch_cpus.iew.wb_penalized                 0                       # number of instrctions required to write to 'other' IQ
system.switch_cpus.iew.wb_rate               0.360925                       # insts written-back per cycle
system.switch_cpus.iew.wb_fanout             0.749556                       # average fanout of values written-back
system.switch_cpus.iew.wb_penalized_rate            0                       # fraction of instructions written-back that wrote to 'other' IQ
system.switch_cpus.commit.commitSquashedInsts       246579                       # The number of squashed insts skipped by commit
system.switch_cpus.commit.commitNonSpecStalls        10519                       # The number of times commit has been forced to stall to communicate backwards
system.switch_cpus.commit.branchMispredicts        13729                       # The number of times a branch was mispredicted
system.switch_cpus.commit.committed_per_cycle::samples      2014887                       # Number of insts commited each cycle
system.switch_cpus.commit.committed_per_cycle::mean     0.427768                       # Number of insts commited each cycle
system.switch_cpus.commit.committed_per_cycle::stdev     1.373713                       # Number of insts commited each cycle
system.switch_cpus.commit.committed_per_cycle::underflows            0      0.00%      0.00% # Number of insts commited each cycle
system.switch_cpus.commit.committed_per_cycle::0      1707430     84.74%     84.74% # Number of insts commited each cycle
system.switch_cpus.commit.committed_per_cycle::1       141929      7.04%     91.78% # Number of insts commited each cycle
system.switch_cpus.commit.committed_per_cycle::2        54972      2.73%     94.51% # Number of insts commited each cycle
system.switch_cpus.commit.committed_per_cycle::3        23437      1.16%     95.68% # Number of insts commited each cycle
system.switch_cpus.commit.committed_per_cycle::4        24994      1.24%     96.92% # Number of insts commited each cycle
system.switch_cpus.commit.committed_per_cycle::5        10528      0.52%     97.44% # Number of insts commited each cycle
system.switch_cpus.commit.committed_per_cycle::6         8982      0.45%     97.88% # Number of insts commited each cycle
system.switch_cpus.commit.committed_per_cycle::7         7707      0.38%     98.27% # Number of insts commited each cycle
system.switch_cpus.commit.committed_per_cycle::8        34908      1.73%    100.00% # Number of insts commited each cycle
system.switch_cpus.commit.committed_per_cycle::overflows            0      0.00%    100.00% # Number of insts commited each cycle
system.switch_cpus.commit.committed_per_cycle::min_value            0                       # Number of insts commited each cycle
system.switch_cpus.commit.committed_per_cycle::max_value            8                       # Number of insts commited each cycle
system.switch_cpus.commit.committed_per_cycle::total      2014887                       # Number of insts commited each cycle
system.switch_cpus.commit.committedInsts       861905                       # Number of instructions committed
system.switch_cpus.commit.committedOps         861905                       # Number of ops (including micro ops) committed
system.switch_cpus.commit.swp_count                 0                       # Number of s/w prefetches committed
system.switch_cpus.commit.refs                 303570                       # Number of memory references committed
system.switch_cpus.commit.loads                161553                       # Number of loads committed
system.switch_cpus.commit.membars                5364                       # Number of memory barriers committed
system.switch_cpus.commit.branches             121075                       # Number of branches committed
system.switch_cpus.commit.fp_insts               4403                       # Number of committed floating point instructions.
system.switch_cpus.commit.int_insts            826999                       # Number of committed integer instructions.
system.switch_cpus.commit.function_calls        11884                       # Number of function calls committed.
system.switch_cpus.commit.op_class_0::No_OpClass        17933      2.08%      2.08% # Class of committed instruction
system.switch_cpus.commit.op_class_0::IntAlu       510813     59.27%     61.35% # Class of committed instruction
system.switch_cpus.commit.op_class_0::IntMult          727      0.08%     61.43% # Class of committed instruction
system.switch_cpus.commit.op_class_0::IntDiv            0      0.00%     61.43% # Class of committed instruction
system.switch_cpus.commit.op_class_0::FloatAdd         1299      0.15%     61.58% # Class of committed instruction
system.switch_cpus.commit.op_class_0::FloatCmp            1      0.00%     61.58% # Class of committed instruction
system.switch_cpus.commit.op_class_0::FloatCvt            2      0.00%     61.58% # Class of committed instruction
system.switch_cpus.commit.op_class_0::FloatMult            1      0.00%     61.58% # Class of committed instruction
system.switch_cpus.commit.op_class_0::FloatDiv          245      0.03%     61.61% # Class of committed instruction
system.switch_cpus.commit.op_class_0::FloatSqrt            0      0.00%     61.61% # Class of committed instruction
system.switch_cpus.commit.op_class_0::SimdAdd            0      0.00%     61.61% # Class of committed instruction
system.switch_cpus.commit.op_class_0::SimdAddAcc            0      0.00%     61.61% # Class of committed instruction
system.switch_cpus.commit.op_class_0::SimdAlu            0      0.00%     61.61% # Class of committed instruction
system.switch_cpus.commit.op_class_0::SimdCmp            0      0.00%     61.61% # Class of committed instruction
system.switch_cpus.commit.op_class_0::SimdCvt            0      0.00%     61.61% # Class of committed instruction
system.switch_cpus.commit.op_class_0::SimdMisc            0      0.00%     61.61% # Class of committed instruction
system.switch_cpus.commit.op_class_0::SimdMult            0      0.00%     61.61% # Class of committed instruction
system.switch_cpus.commit.op_class_0::SimdMultAcc            0      0.00%     61.61% # Class of committed instruction
system.switch_cpus.commit.op_class_0::SimdShift            0      0.00%     61.61% # Class of committed instruction
system.switch_cpus.commit.op_class_0::SimdShiftAcc            0      0.00%     61.61% # Class of committed instruction
system.switch_cpus.commit.op_class_0::SimdSqrt            0      0.00%     61.61% # Class of committed instruction
system.switch_cpus.commit.op_class_0::SimdFloatAdd            0      0.00%     61.61% # Class of committed instruction
system.switch_cpus.commit.op_class_0::SimdFloatAlu            0      0.00%     61.61% # Class of committed instruction
system.switch_cpus.commit.op_class_0::SimdFloatCmp            0      0.00%     61.61% # Class of committed instruction
system.switch_cpus.commit.op_class_0::SimdFloatCvt            0      0.00%     61.61% # Class of committed instruction
system.switch_cpus.commit.op_class_0::SimdFloatDiv            0      0.00%     61.61% # Class of committed instruction
system.switch_cpus.commit.op_class_0::SimdFloatMisc            0      0.00%     61.61% # Class of committed instruction
system.switch_cpus.commit.op_class_0::SimdFloatMult            0      0.00%     61.61% # Class of committed instruction
system.switch_cpus.commit.op_class_0::SimdFloatMultAcc            0      0.00%     61.61% # Class of committed instruction
system.switch_cpus.commit.op_class_0::SimdFloatSqrt            0      0.00%     61.61% # Class of committed instruction
system.switch_cpus.commit.op_class_0::MemRead       166917     19.37%     80.98% # Class of committed instruction
system.switch_cpus.commit.op_class_0::MemWrite       142381     16.52%     97.50% # Class of committed instruction
system.switch_cpus.commit.op_class_0::IprAccess        21586      2.50%    100.00% # Class of committed instruction
system.switch_cpus.commit.op_class_0::InstPrefetch            0      0.00%    100.00% # Class of committed instruction
system.switch_cpus.commit.op_class_0::total       861905                       # Class of committed instruction
system.switch_cpus.commit.bw_lim_events         34908                       # number cycles where commit BW limit reached
system.switch_cpus.rob.rob_reads              3068215                       # The number of ROB reads
system.switch_cpus.rob.rob_writes             2260006                       # The number of ROB writes
system.switch_cpus.timesIdled                   10472                       # Number of times that the entire CPU went into an idle state and unscheduled itself
system.switch_cpus.idleCycles                  602802                       # Total number of cycles that the CPU has spent unscheduled due to idling
system.switch_cpus.committedInsts              844464                       # Number of Instructions Simulated
system.switch_cpus.committedOps                844464                       # Number of Ops (including micro ops) Simulated
system.switch_cpus.cpi                       3.150401                       # CPI: Cycles Per Instruction
system.switch_cpus.cpi_total                 3.150401                       # CPI: Total CPI of All Threads
system.switch_cpus.ipc                       0.317420                       # IPC: Instructions Per Cycle
system.switch_cpus.ipc_total                 0.317420                       # IPC: Total IPC of All Threads
system.switch_cpus.int_regfile_reads          1327972                       # number of integer regfile reads
system.switch_cpus.int_regfile_writes          666170                       # number of integer regfile writes
system.switch_cpus.fp_regfile_reads              3034                       # number of floating regfile reads
system.switch_cpus.fp_regfile_writes             2774                       # number of floating regfile writes
system.switch_cpus.misc_regfile_reads           28735                       # number of misc regfile reads
system.switch_cpus.misc_regfile_writes          16947                       # number of misc regfile writes
system.tol2bus.trans_dist::ReadReq              30176                       # Transaction distribution
system.tol2bus.trans_dist::ReadResp             30176                       # Transaction distribution
system.tol2bus.trans_dist::WriteReq               134                       # Transaction distribution
system.tol2bus.trans_dist::WriteResp              134                       # Transaction distribution
system.tol2bus.trans_dist::Writeback            14433                       # Transaction distribution
system.tol2bus.trans_dist::UpgradeReq               2                       # Transaction distribution
system.tol2bus.trans_dist::SCUpgradeReq             1                       # Transaction distribution
system.tol2bus.trans_dist::UpgradeResp              3                       # Transaction distribution
system.tol2bus.trans_dist::ReadExReq             9781                       # Transaction distribution
system.tol2bus.trans_dist::ReadExResp            9781                       # Transaction distribution
system.tol2bus.pkt_count_system.cpu.icache.mem_side::system.l2.cpu_side        31075                       # Packet count per connected master and slave (bytes)
system.tol2bus.pkt_count_system.cpu.dcache.mem_side::system.l2.cpu_side        63535                       # Packet count per connected master and slave (bytes)
system.tol2bus.pkt_count::total                 94610                       # Packet count per connected master and slave (bytes)
system.tol2bus.pkt_size_system.cpu.icache.mem_side::system.l2.cpu_side       994048                       # Cumulative packet size per connected master and slave (bytes)
system.tol2bus.pkt_size_system.cpu.dcache.mem_side::system.l2.cpu_side      2467568                       # Cumulative packet size per connected master and slave (bytes)
system.tol2bus.pkt_size::total                3461616                       # Cumulative packet size per connected master and slave (bytes)
system.tol2bus.snoops                              11                       # Total snoops (count)
system.tol2bus.snoop_fanout::samples            54527                       # Request fanout histogram
system.tol2bus.snoop_fanout::mean                   1                       # Request fanout histogram
system.tol2bus.snoop_fanout::stdev                  0                       # Request fanout histogram
system.tol2bus.snoop_fanout::underflows             0      0.00%      0.00% # Request fanout histogram
system.tol2bus.snoop_fanout::0                      0      0.00%      0.00% # Request fanout histogram
system.tol2bus.snoop_fanout::1                  54527    100.00%    100.00% # Request fanout histogram
system.tol2bus.snoop_fanout::2                      0      0.00%    100.00% # Request fanout histogram
system.tol2bus.snoop_fanout::overflows              0      0.00%    100.00% # Request fanout histogram
system.tol2bus.snoop_fanout::min_value              1                       # Request fanout histogram
system.tol2bus.snoop_fanout::max_value              1                       # Request fanout histogram
system.tol2bus.snoop_fanout::total              54527                       # Request fanout histogram
system.tol2bus.reqLayer0.occupancy           41763500                       # Layer occupancy (ticks)
system.tol2bus.reqLayer0.utilization              3.1                       # Layer utilization (%)
system.tol2bus.respLayer0.occupancy          24530978                       # Layer occupancy (ticks)
system.tol2bus.respLayer0.utilization             1.8                       # Layer utilization (%)
system.tol2bus.respLayer1.occupancy          38749498                       # Layer occupancy (ticks)
system.tol2bus.respLayer1.utilization             2.9                       # Layer utilization (%)
system.tsunami.ethernet.descDMAReads                0                       # Number of descriptors the device read w/ DMA
system.tsunami.ethernet.descDMAWrites               0                       # Number of descriptors the device wrote w/ DMA
system.tsunami.ethernet.descDmaReadBytes            0                       # number of descriptor bytes read w/ DMA
system.tsunami.ethernet.descDmaWriteBytes            0                       # number of descriptor bytes write w/ DMA
system.tsunami.ethernet.postedSwi                   0                       # number of software interrupts posted to CPU
system.tsunami.ethernet.coalescedSwi              nan                       # average number of Swi's coalesced into each post
system.tsunami.ethernet.totalSwi                    0                       # total number of Swi written to ISR
system.tsunami.ethernet.postedRxIdle                0                       # number of rxIdle interrupts posted to CPU
system.tsunami.ethernet.coalescedRxIdle           nan                       # average number of RxIdle's coalesced into each post
system.tsunami.ethernet.totalRxIdle                 0                       # total number of RxIdle written to ISR
system.tsunami.ethernet.postedRxOk                  0                       # number of RxOk interrupts posted to CPU
system.tsunami.ethernet.coalescedRxOk             nan                       # average number of RxOk's coalesced into each post
system.tsunami.ethernet.totalRxOk                   0                       # total number of RxOk written to ISR
system.tsunami.ethernet.postedRxDesc                0                       # number of RxDesc interrupts posted to CPU
system.tsunami.ethernet.coalescedRxDesc           nan                       # average number of RxDesc's coalesced into each post
system.tsunami.ethernet.totalRxDesc                 0                       # total number of RxDesc written to ISR
system.tsunami.ethernet.postedTxOk                  0                       # number of TxOk interrupts posted to CPU
system.tsunami.ethernet.coalescedTxOk             nan                       # average number of TxOk's coalesced into each post
system.tsunami.ethernet.totalTxOk                   0                       # total number of TxOk written to ISR
system.tsunami.ethernet.postedTxIdle                0                       # number of TxIdle interrupts posted to CPU
system.tsunami.ethernet.coalescedTxIdle           nan                       # average number of TxIdle's coalesced into each post
system.tsunami.ethernet.totalTxIdle                 0                       # total number of TxIdle written to ISR
system.tsunami.ethernet.postedTxDesc                0                       # number of TxDesc interrupts posted to CPU
system.tsunami.ethernet.coalescedTxDesc           nan                       # average number of TxDesc's coalesced into each post
system.tsunami.ethernet.totalTxDesc                 0                       # total number of TxDesc written to ISR
system.tsunami.ethernet.postedRxOrn                 0                       # number of RxOrn posted to CPU
system.tsunami.ethernet.coalescedRxOrn            nan                       # average number of RxOrn's coalesced into each post
system.tsunami.ethernet.totalRxOrn                  0                       # total number of RxOrn written to ISR
system.tsunami.ethernet.coalescedTotal            nan                       # average number of interrupts coalesced into each post
system.tsunami.ethernet.postedInterrupts            0                       # number of posts to CPU
system.tsunami.ethernet.droppedPackets              0                       # number of packets dropped
system.switch_cpus.kern.inst.arm                    0                       # number of arm instructions executed
system.switch_cpus.kern.inst.quiesce                0                       # number of quiesce instructions executed
system.switch_cpus.kern.inst.hwrei                  0                       # number of hwrei instructions executed
system.switch_cpus.kern.mode_switch::kernel            0                       # number of protection mode switches
system.switch_cpus.kern.mode_switch::user            0                       # number of protection mode switches
system.switch_cpus.kern.mode_switch::idle            0                       # number of protection mode switches
system.switch_cpus.kern.mode_good::kernel            0                      
system.switch_cpus.kern.mode_good::user             0                      
system.switch_cpus.kern.mode_good::idle             0                      
system.switch_cpus.kern.mode_switch_good::kernel          nan                       # fraction of useful protection mode switches
system.switch_cpus.kern.mode_switch_good::user          nan                       # fraction of useful protection mode switches
system.switch_cpus.kern.mode_switch_good::idle          nan                       # fraction of useful protection mode switches
system.switch_cpus.kern.mode_switch_good::total          nan                       # fraction of useful protection mode switches
system.switch_cpus.kern.mode_ticks::kernel            0                       # number of ticks spent at the given mode
system.switch_cpus.kern.mode_ticks::user            0                       # number of ticks spent at the given mode
system.switch_cpus.kern.mode_ticks::idle            0                       # number of ticks spent at the given mode
system.switch_cpus.kern.swap_context                0                       # number of times the context was actually changed

---------- End Simulation Statistics   ----------
