***** HSPICE -- D-2010.03-SP1 32-BIT (May 26 2010) winnt ******
 Input File: d:\aut\mt_hw02\dram\decoder\tb_decoder.sp
 lic:
 lic: FLEXlm: v8.5b
 lic: USER:   NOVINSYSTEM          HOSTNAME: NOVINSYSTEM-PC
 lic: HOSTID: 00241d50ceae         PID:      492
 lic: Using FLEXlm license file:
 lic: 27000@elena
 lic: Checkout 1 hspice
 lic: License/Maintenance for hspice will expire on 31-dec-2020/2007.9
 lic: NODE LOCKED license on hostid 00241d50ceae
 lic:
 lic: Release hspice token(s)
