
---------- Begin Simulation Statistics ----------
sim_seconds                                  0.001101                       # Number of seconds simulated
sim_ticks                                  1101209000                       # Number of ticks simulated
final_tick                               2255542981000                       # Number of ticks from beginning of simulation (restored from checkpoints and never reset)
sim_freq                                 1000000000000                       # Frequency of simulated ticks
host_inst_rate                               26381506                       # Simulator instruction rate (inst/s)
host_op_rate                                 26381329                       # Simulator op (including micro ops) rate (op/s)
host_tick_rate                              296480593                       # Simulator tick rate (ticks/s)
host_mem_usage                                 734408                       # Number of bytes of host memory used
host_seconds                                     3.71                       # Real time elapsed on the host
sim_insts                                    97987166                       # Number of instructions simulated
sim_ops                                      97987166                       # Number of ops (including micro ops) simulated
system.voltage_domain.voltage                       1                       # Voltage in Volts
system.clk_domain.clock                          1000                       # Clock period in ticks
system.mem_ctrls.bytes_read::switch_cpus.inst       344320                       # Number of bytes read from this memory
system.mem_ctrls.bytes_read::switch_cpus.data       921280                       # Number of bytes read from this memory
system.mem_ctrls.bytes_read::total            1265600                       # Number of bytes read from this memory
system.mem_ctrls.bytes_inst_read::switch_cpus.inst       344320                       # Number of instructions bytes read from this memory
system.mem_ctrls.bytes_inst_read::total        344320                       # Number of instructions bytes read from this memory
system.mem_ctrls.bytes_written::writebacks       583552                       # Number of bytes written to this memory
system.mem_ctrls.bytes_written::total          583552                       # Number of bytes written to this memory
system.mem_ctrls.num_reads::switch_cpus.inst         5380                       # Number of read requests responded to by this memory
system.mem_ctrls.num_reads::switch_cpus.data        14395                       # Number of read requests responded to by this memory
system.mem_ctrls.num_reads::total               19775                       # Number of read requests responded to by this memory
system.mem_ctrls.num_writes::writebacks          9118                       # Number of write requests responded to by this memory
system.mem_ctrls.num_writes::total               9118                       # Number of write requests responded to by this memory
system.mem_ctrls.bw_read::switch_cpus.inst    312674524                       # Total read bandwidth from this memory (bytes/s)
system.mem_ctrls.bw_read::switch_cpus.data    836607765                       # Total read bandwidth from this memory (bytes/s)
system.mem_ctrls.bw_read::total            1149282289                       # Total read bandwidth from this memory (bytes/s)
system.mem_ctrls.bw_inst_read::switch_cpus.inst    312674524                       # Instruction read bandwidth from this memory (bytes/s)
system.mem_ctrls.bw_inst_read::total        312674524                       # Instruction read bandwidth from this memory (bytes/s)
system.mem_ctrls.bw_write::writebacks       529919389                       # Write bandwidth from this memory (bytes/s)
system.mem_ctrls.bw_write::total            529919389                       # Write bandwidth from this memory (bytes/s)
system.mem_ctrls.bw_total::writebacks       529919389                       # Total bandwidth to/from this memory (bytes/s)
system.mem_ctrls.bw_total::switch_cpus.inst    312674524                       # Total bandwidth to/from this memory (bytes/s)
system.mem_ctrls.bw_total::switch_cpus.data    836607765                       # Total bandwidth to/from this memory (bytes/s)
system.mem_ctrls.bw_total::total           1679201677                       # Total bandwidth to/from this memory (bytes/s)
system.mem_ctrls.readReqs                       19775                       # Number of read requests accepted
system.mem_ctrls.writeReqs                       9118                       # Number of write requests accepted
system.mem_ctrls.readBursts                     19775                       # Number of DRAM read bursts, including those serviced by the write queue
system.mem_ctrls.writeBursts                     9118                       # Number of DRAM write bursts, including those merged in the write queue
system.mem_ctrls.bytesReadDRAM                1264320                       # Total number of bytes read from DRAM
system.mem_ctrls.bytesReadWrQ                    1280                       # Total number of bytes read from write queue
system.mem_ctrls.bytesWritten                  582080                       # Total number of bytes written to DRAM
system.mem_ctrls.bytesReadSys                 1265600                       # Total read bytes from the system interface side
system.mem_ctrls.bytesWrittenSys               583552                       # Total written bytes from the system interface side
system.mem_ctrls.servicedByWrQ                     20                       # Number of DRAM read bursts serviced by the write queue
system.mem_ctrls.mergedWrBursts                     0                       # Number of DRAM write bursts merged with an existing one
system.mem_ctrls.neitherReadNorWriteReqs            0                       # Number of requests that are neither read nor write
system.mem_ctrls.perBankRdBursts::0              1327                       # Per bank write bursts
system.mem_ctrls.perBankRdBursts::1              1003                       # Per bank write bursts
system.mem_ctrls.perBankRdBursts::2              1385                       # Per bank write bursts
system.mem_ctrls.perBankRdBursts::3              1270                       # Per bank write bursts
system.mem_ctrls.perBankRdBursts::4              1278                       # Per bank write bursts
system.mem_ctrls.perBankRdBursts::5              1008                       # Per bank write bursts
system.mem_ctrls.perBankRdBursts::6              1411                       # Per bank write bursts
system.mem_ctrls.perBankRdBursts::7              1105                       # Per bank write bursts
system.mem_ctrls.perBankRdBursts::8              1185                       # Per bank write bursts
system.mem_ctrls.perBankRdBursts::9              1292                       # Per bank write bursts
system.mem_ctrls.perBankRdBursts::10             1174                       # Per bank write bursts
system.mem_ctrls.perBankRdBursts::11             1444                       # Per bank write bursts
system.mem_ctrls.perBankRdBursts::12             1068                       # Per bank write bursts
system.mem_ctrls.perBankRdBursts::13             1744                       # Per bank write bursts
system.mem_ctrls.perBankRdBursts::14             1151                       # Per bank write bursts
system.mem_ctrls.perBankRdBursts::15              910                       # Per bank write bursts
system.mem_ctrls.perBankWrBursts::0               542                       # Per bank write bursts
system.mem_ctrls.perBankWrBursts::1               569                       # Per bank write bursts
system.mem_ctrls.perBankWrBursts::2               875                       # Per bank write bursts
system.mem_ctrls.perBankWrBursts::3              1040                       # Per bank write bursts
system.mem_ctrls.perBankWrBursts::4               813                       # Per bank write bursts
system.mem_ctrls.perBankWrBursts::5               606                       # Per bank write bursts
system.mem_ctrls.perBankWrBursts::6               777                       # Per bank write bursts
system.mem_ctrls.perBankWrBursts::7               448                       # Per bank write bursts
system.mem_ctrls.perBankWrBursts::8               416                       # Per bank write bursts
system.mem_ctrls.perBankWrBursts::9               670                       # Per bank write bursts
system.mem_ctrls.perBankWrBursts::10              294                       # Per bank write bursts
system.mem_ctrls.perBankWrBursts::11              401                       # Per bank write bursts
system.mem_ctrls.perBankWrBursts::12              202                       # Per bank write bursts
system.mem_ctrls.perBankWrBursts::13              477                       # Per bank write bursts
system.mem_ctrls.perBankWrBursts::14              475                       # Per bank write bursts
system.mem_ctrls.perBankWrBursts::15              490                       # Per bank write bursts
system.mem_ctrls.numRdRetry                         0                       # Number of times read queue was full causing retry
system.mem_ctrls.numWrRetry                         0                       # Number of times write queue was full causing retry
system.mem_ctrls.totGap                    1101169000                       # Total gap between requests
system.mem_ctrls.readPktSize::0                     0                       # Read request sizes (log2)
system.mem_ctrls.readPktSize::1                     0                       # Read request sizes (log2)
system.mem_ctrls.readPktSize::2                     0                       # Read request sizes (log2)
system.mem_ctrls.readPktSize::3                     0                       # Read request sizes (log2)
system.mem_ctrls.readPktSize::4                     0                       # Read request sizes (log2)
system.mem_ctrls.readPktSize::5                     0                       # Read request sizes (log2)
system.mem_ctrls.readPktSize::6                 19775                       # Read request sizes (log2)
system.mem_ctrls.writePktSize::0                    0                       # Write request sizes (log2)
system.mem_ctrls.writePktSize::1                    0                       # Write request sizes (log2)
system.mem_ctrls.writePktSize::2                    0                       # Write request sizes (log2)
system.mem_ctrls.writePktSize::3                    0                       # Write request sizes (log2)
system.mem_ctrls.writePktSize::4                    0                       # Write request sizes (log2)
system.mem_ctrls.writePktSize::5                    0                       # Write request sizes (log2)
system.mem_ctrls.writePktSize::6                 9118                       # Write request sizes (log2)
system.mem_ctrls.rdQLenPdf::0                    9620                       # What read queue length does an incoming req see
system.mem_ctrls.rdQLenPdf::1                    5249                       # What read queue length does an incoming req see
system.mem_ctrls.rdQLenPdf::2                    3108                       # What read queue length does an incoming req see
system.mem_ctrls.rdQLenPdf::3                    1749                       # What read queue length does an incoming req see
system.mem_ctrls.rdQLenPdf::4                      25                       # What read queue length does an incoming req see
system.mem_ctrls.rdQLenPdf::5                       3                       # What read queue length does an incoming req see
system.mem_ctrls.rdQLenPdf::6                       1                       # What read queue length does an incoming req see
system.mem_ctrls.rdQLenPdf::7                       0                       # What read queue length does an incoming req see
system.mem_ctrls.rdQLenPdf::8                       0                       # What read queue length does an incoming req see
system.mem_ctrls.rdQLenPdf::9                       0                       # What read queue length does an incoming req see
system.mem_ctrls.rdQLenPdf::10                      0                       # What read queue length does an incoming req see
system.mem_ctrls.rdQLenPdf::11                      0                       # What read queue length does an incoming req see
system.mem_ctrls.rdQLenPdf::12                      0                       # What read queue length does an incoming req see
system.mem_ctrls.rdQLenPdf::13                      0                       # What read queue length does an incoming req see
system.mem_ctrls.rdQLenPdf::14                      0                       # What read queue length does an incoming req see
system.mem_ctrls.rdQLenPdf::15                      0                       # What read queue length does an incoming req see
system.mem_ctrls.rdQLenPdf::16                      0                       # What read queue length does an incoming req see
system.mem_ctrls.rdQLenPdf::17                      0                       # What read queue length does an incoming req see
system.mem_ctrls.rdQLenPdf::18                      0                       # What read queue length does an incoming req see
system.mem_ctrls.rdQLenPdf::19                      0                       # What read queue length does an incoming req see
system.mem_ctrls.rdQLenPdf::20                      0                       # What read queue length does an incoming req see
system.mem_ctrls.rdQLenPdf::21                      0                       # What read queue length does an incoming req see
system.mem_ctrls.rdQLenPdf::22                      0                       # What read queue length does an incoming req see
system.mem_ctrls.rdQLenPdf::23                      0                       # What read queue length does an incoming req see
system.mem_ctrls.rdQLenPdf::24                      0                       # What read queue length does an incoming req see
system.mem_ctrls.rdQLenPdf::25                      0                       # What read queue length does an incoming req see
system.mem_ctrls.rdQLenPdf::26                      0                       # What read queue length does an incoming req see
system.mem_ctrls.rdQLenPdf::27                      0                       # What read queue length does an incoming req see
system.mem_ctrls.rdQLenPdf::28                      0                       # What read queue length does an incoming req see
system.mem_ctrls.rdQLenPdf::29                      0                       # What read queue length does an incoming req see
system.mem_ctrls.rdQLenPdf::30                      0                       # What read queue length does an incoming req see
system.mem_ctrls.rdQLenPdf::31                      0                       # What read queue length does an incoming req see
system.mem_ctrls.wrQLenPdf::0                       1                       # What write queue length does an incoming req see
system.mem_ctrls.wrQLenPdf::1                       1                       # What write queue length does an incoming req see
system.mem_ctrls.wrQLenPdf::2                       1                       # What write queue length does an incoming req see
system.mem_ctrls.wrQLenPdf::3                       1                       # What write queue length does an incoming req see
system.mem_ctrls.wrQLenPdf::4                       1                       # What write queue length does an incoming req see
system.mem_ctrls.wrQLenPdf::5                       1                       # What write queue length does an incoming req see
system.mem_ctrls.wrQLenPdf::6                       1                       # What write queue length does an incoming req see
system.mem_ctrls.wrQLenPdf::7                       1                       # What write queue length does an incoming req see
system.mem_ctrls.wrQLenPdf::8                       1                       # What write queue length does an incoming req see
system.mem_ctrls.wrQLenPdf::9                       1                       # What write queue length does an incoming req see
system.mem_ctrls.wrQLenPdf::10                      1                       # What write queue length does an incoming req see
system.mem_ctrls.wrQLenPdf::11                      1                       # What write queue length does an incoming req see
system.mem_ctrls.wrQLenPdf::12                      1                       # What write queue length does an incoming req see
system.mem_ctrls.wrQLenPdf::13                      1                       # What write queue length does an incoming req see
system.mem_ctrls.wrQLenPdf::14                      1                       # What write queue length does an incoming req see
system.mem_ctrls.wrQLenPdf::15                     61                       # What write queue length does an incoming req see
system.mem_ctrls.wrQLenPdf::16                     65                       # What write queue length does an incoming req see
system.mem_ctrls.wrQLenPdf::17                    331                       # What write queue length does an incoming req see
system.mem_ctrls.wrQLenPdf::18                    481                       # What write queue length does an incoming req see
system.mem_ctrls.wrQLenPdf::19                    542                       # What write queue length does an incoming req see
system.mem_ctrls.wrQLenPdf::20                    568                       # What write queue length does an incoming req see
system.mem_ctrls.wrQLenPdf::21                    573                       # What write queue length does an incoming req see
system.mem_ctrls.wrQLenPdf::22                    577                       # What write queue length does an incoming req see
system.mem_ctrls.wrQLenPdf::23                    578                       # What write queue length does an incoming req see
system.mem_ctrls.wrQLenPdf::24                    580                       # What write queue length does an incoming req see
system.mem_ctrls.wrQLenPdf::25                    593                       # What write queue length does an incoming req see
system.mem_ctrls.wrQLenPdf::26                    634                       # What write queue length does an incoming req see
system.mem_ctrls.wrQLenPdf::27                    593                       # What write queue length does an incoming req see
system.mem_ctrls.wrQLenPdf::28                    615                       # What write queue length does an incoming req see
system.mem_ctrls.wrQLenPdf::29                    620                       # What write queue length does an incoming req see
system.mem_ctrls.wrQLenPdf::30                    564                       # What write queue length does an incoming req see
system.mem_ctrls.wrQLenPdf::31                    568                       # What write queue length does an incoming req see
system.mem_ctrls.wrQLenPdf::32                    558                       # What write queue length does an incoming req see
system.mem_ctrls.wrQLenPdf::33                      1                       # What write queue length does an incoming req see
system.mem_ctrls.wrQLenPdf::34                      1                       # What write queue length does an incoming req see
system.mem_ctrls.wrQLenPdf::35                      0                       # What write queue length does an incoming req see
system.mem_ctrls.wrQLenPdf::36                      0                       # What write queue length does an incoming req see
system.mem_ctrls.wrQLenPdf::37                      0                       # What write queue length does an incoming req see
system.mem_ctrls.wrQLenPdf::38                      0                       # What write queue length does an incoming req see
system.mem_ctrls.wrQLenPdf::39                      0                       # What write queue length does an incoming req see
system.mem_ctrls.wrQLenPdf::40                      0                       # What write queue length does an incoming req see
system.mem_ctrls.wrQLenPdf::41                      0                       # What write queue length does an incoming req see
system.mem_ctrls.wrQLenPdf::42                      0                       # What write queue length does an incoming req see
system.mem_ctrls.wrQLenPdf::43                      0                       # What write queue length does an incoming req see
system.mem_ctrls.wrQLenPdf::44                      0                       # What write queue length does an incoming req see
system.mem_ctrls.wrQLenPdf::45                      0                       # What write queue length does an incoming req see
system.mem_ctrls.wrQLenPdf::46                      0                       # What write queue length does an incoming req see
system.mem_ctrls.wrQLenPdf::47                      0                       # What write queue length does an incoming req see
system.mem_ctrls.wrQLenPdf::48                      0                       # What write queue length does an incoming req see
system.mem_ctrls.wrQLenPdf::49                      0                       # What write queue length does an incoming req see
system.mem_ctrls.wrQLenPdf::50                      0                       # What write queue length does an incoming req see
system.mem_ctrls.wrQLenPdf::51                      0                       # What write queue length does an incoming req see
system.mem_ctrls.wrQLenPdf::52                      0                       # What write queue length does an incoming req see
system.mem_ctrls.wrQLenPdf::53                      0                       # What write queue length does an incoming req see
system.mem_ctrls.wrQLenPdf::54                      0                       # What write queue length does an incoming req see
system.mem_ctrls.wrQLenPdf::55                      0                       # What write queue length does an incoming req see
system.mem_ctrls.wrQLenPdf::56                      0                       # What write queue length does an incoming req see
system.mem_ctrls.wrQLenPdf::57                      0                       # What write queue length does an incoming req see
system.mem_ctrls.wrQLenPdf::58                      0                       # What write queue length does an incoming req see
system.mem_ctrls.wrQLenPdf::59                      0                       # What write queue length does an incoming req see
system.mem_ctrls.wrQLenPdf::60                      0                       # What write queue length does an incoming req see
system.mem_ctrls.wrQLenPdf::61                      0                       # What write queue length does an incoming req see
system.mem_ctrls.wrQLenPdf::62                      0                       # What write queue length does an incoming req see
system.mem_ctrls.wrQLenPdf::63                      0                       # What write queue length does an incoming req see
system.mem_ctrls.bytesPerActivate::samples         6786                       # Bytes accessed per row activation
system.mem_ctrls.bytesPerActivate::mean    271.712349                       # Bytes accessed per row activation
system.mem_ctrls.bytesPerActivate::gmean   164.124246                       # Bytes accessed per row activation
system.mem_ctrls.bytesPerActivate::stdev   301.882135                       # Bytes accessed per row activation
system.mem_ctrls.bytesPerActivate::0-127         2670     39.35%     39.35% # Bytes accessed per row activation
system.mem_ctrls.bytesPerActivate::128-255         1779     26.22%     65.56% # Bytes accessed per row activation
system.mem_ctrls.bytesPerActivate::256-383          752     11.08%     76.64% # Bytes accessed per row activation
system.mem_ctrls.bytesPerActivate::384-511          367      5.41%     82.05% # Bytes accessed per row activation
system.mem_ctrls.bytesPerActivate::512-639          245      3.61%     85.66% # Bytes accessed per row activation
system.mem_ctrls.bytesPerActivate::640-767          142      2.09%     87.75% # Bytes accessed per row activation
system.mem_ctrls.bytesPerActivate::768-895          117      1.72%     89.48% # Bytes accessed per row activation
system.mem_ctrls.bytesPerActivate::896-1023           76      1.12%     90.60% # Bytes accessed per row activation
system.mem_ctrls.bytesPerActivate::1024-1151          638      9.40%    100.00% # Bytes accessed per row activation
system.mem_ctrls.bytesPerActivate::total         6786                       # Bytes accessed per row activation
system.mem_ctrls.rdPerTurnAround::samples          558                       # Reads before turning the bus around for writes
system.mem_ctrls.rdPerTurnAround::mean      35.390681                       # Reads before turning the bus around for writes
system.mem_ctrls.rdPerTurnAround::gmean     30.472515                       # Reads before turning the bus around for writes
system.mem_ctrls.rdPerTurnAround::stdev     22.971641                       # Reads before turning the bus around for writes
system.mem_ctrls.rdPerTurnAround::8-15             24      4.30%      4.30% # Reads before turning the bus around for writes
system.mem_ctrls.rdPerTurnAround::16-23           180     32.26%     36.56% # Reads before turning the bus around for writes
system.mem_ctrls.rdPerTurnAround::24-31           108     19.35%     55.91% # Reads before turning the bus around for writes
system.mem_ctrls.rdPerTurnAround::32-39            80     14.34%     70.25% # Reads before turning the bus around for writes
system.mem_ctrls.rdPerTurnAround::40-47            54      9.68%     79.93% # Reads before turning the bus around for writes
system.mem_ctrls.rdPerTurnAround::48-55            38      6.81%     86.74% # Reads before turning the bus around for writes
system.mem_ctrls.rdPerTurnAround::56-63            22      3.94%     90.68% # Reads before turning the bus around for writes
system.mem_ctrls.rdPerTurnAround::64-71            18      3.23%     93.91% # Reads before turning the bus around for writes
system.mem_ctrls.rdPerTurnAround::72-79             7      1.25%     95.16% # Reads before turning the bus around for writes
system.mem_ctrls.rdPerTurnAround::80-87            10      1.79%     96.95% # Reads before turning the bus around for writes
system.mem_ctrls.rdPerTurnAround::88-95             3      0.54%     97.49% # Reads before turning the bus around for writes
system.mem_ctrls.rdPerTurnAround::96-103            1      0.18%     97.67% # Reads before turning the bus around for writes
system.mem_ctrls.rdPerTurnAround::104-111            3      0.54%     98.21% # Reads before turning the bus around for writes
system.mem_ctrls.rdPerTurnAround::112-119            3      0.54%     98.75% # Reads before turning the bus around for writes
system.mem_ctrls.rdPerTurnAround::120-127            1      0.18%     98.92% # Reads before turning the bus around for writes
system.mem_ctrls.rdPerTurnAround::128-135            2      0.36%     99.28% # Reads before turning the bus around for writes
system.mem_ctrls.rdPerTurnAround::152-159            2      0.36%     99.64% # Reads before turning the bus around for writes
system.mem_ctrls.rdPerTurnAround::176-183            2      0.36%    100.00% # Reads before turning the bus around for writes
system.mem_ctrls.rdPerTurnAround::total           558                       # Reads before turning the bus around for writes
system.mem_ctrls.wrPerTurnAround::samples          558                       # Writes before turning the bus around for reads
system.mem_ctrls.wrPerTurnAround::mean      16.299283                       # Writes before turning the bus around for reads
system.mem_ctrls.wrPerTurnAround::gmean     16.281288                       # Writes before turning the bus around for reads
system.mem_ctrls.wrPerTurnAround::stdev      0.798360                       # Writes before turning the bus around for reads
system.mem_ctrls.wrPerTurnAround::16              480     86.02%     86.02% # Writes before turning the bus around for reads
system.mem_ctrls.wrPerTurnAround::17               14      2.51%     88.53% # Writes before turning the bus around for reads
system.mem_ctrls.wrPerTurnAround::18               44      7.89%     96.42% # Writes before turning the bus around for reads
system.mem_ctrls.wrPerTurnAround::19               15      2.69%     99.10% # Writes before turning the bus around for reads
system.mem_ctrls.wrPerTurnAround::20                5      0.90%    100.00% # Writes before turning the bus around for reads
system.mem_ctrls.wrPerTurnAround::total           558                       # Writes before turning the bus around for reads
system.mem_ctrls.totQLat                    327777750                       # Total ticks spent queuing
system.mem_ctrls.totMemAccLat               698184000                       # Total ticks spent from burst creation until serviced by the DRAM
system.mem_ctrls.totBusLat                   98775000                       # Total ticks spent in databus transfers
system.mem_ctrls.avgQLat                     16592.14                       # Average queueing delay per DRAM burst
system.mem_ctrls.avgBusLat                    5000.00                       # Average bus latency per DRAM burst
system.mem_ctrls.avgMemAccLat                35342.14                       # Average memory access latency per DRAM burst
system.mem_ctrls.avgRdBW                      1148.12                       # Average DRAM read bandwidth in MiByte/s
system.mem_ctrls.avgWrBW                       528.58                       # Average achieved write bandwidth in MiByte/s
system.mem_ctrls.avgRdBWSys                   1149.28                       # Average system read bandwidth in MiByte/s
system.mem_ctrls.avgWrBWSys                    529.92                       # Average system write bandwidth in MiByte/s
system.mem_ctrls.peakBW                      12800.00                       # Theoretical peak bandwidth in MiByte/s
system.mem_ctrls.busUtil                        13.10                       # Data bus utilization in percentage
system.mem_ctrls.busUtilRead                     8.97                       # Data bus utilization in percentage for reads
system.mem_ctrls.busUtilWrite                    4.13                       # Data bus utilization in percentage for writes
system.mem_ctrls.avgRdQLen                       1.81                       # Average read queue length when enqueuing
system.mem_ctrls.avgWrQLen                      25.72                       # Average write queue length when enqueuing
system.mem_ctrls.readRowHits                    15608                       # Number of row buffer hits during reads
system.mem_ctrls.writeRowHits                    6440                       # Number of row buffer hits during writes
system.mem_ctrls.readRowHitRate                 79.01                       # Row buffer hit rate for reads
system.mem_ctrls.writeRowHitRate                70.63                       # Row buffer hit rate for writes
system.mem_ctrls.avgGap                      38111.96                       # Average gap between requests
system.mem_ctrls.pageHitRate                    76.36                       # Row buffer hit rate, read and write combined
system.mem_ctrls_0.actEnergy                 26346600                       # Energy for activate commands per rank (pJ)
system.mem_ctrls_0.preEnergy                 14375625                       # Energy for precharge commands per rank (pJ)
system.mem_ctrls_0.readEnergy                76190400                       # Energy for read commands per rank (pJ)
system.mem_ctrls_0.writeEnergy               36650880                       # Energy for write commands per rank (pJ)
system.mem_ctrls_0.refreshEnergy             71706960                       # Energy for refresh commands per rank (pJ)
system.mem_ctrls_0.actBackEnergy            705153555                       # Energy for active background per rank (pJ)
system.mem_ctrls_0.preBackEnergy             40353000                       # Energy for precharge background per rank (pJ)
system.mem_ctrls_0.totalEnergy              970777020                       # Total energy per rank (pJ)
system.mem_ctrls_0.averagePower            883.986154                       # Core power per rank (mW)
system.mem_ctrls_0.memoryStateTime::IDLE     62366750                       # Time in different power states
system.mem_ctrls_0.memoryStateTime::REF      36660000                       # Time in different power states
system.mem_ctrls_0.memoryStateTime::PRE_PDN            0                       # Time in different power states
system.mem_ctrls_0.memoryStateTime::ACT     999168750                       # Time in different power states
system.mem_ctrls_0.memoryStateTime::ACT_PDN            0                       # Time in different power states
system.mem_ctrls_1.actEnergy                 24796800                       # Energy for activate commands per rank (pJ)
system.mem_ctrls_1.preEnergy                 13530000                       # Energy for precharge commands per rank (pJ)
system.mem_ctrls_1.readEnergy                77500800                       # Energy for read commands per rank (pJ)
system.mem_ctrls_1.writeEnergy               22064400                       # Energy for write commands per rank (pJ)
system.mem_ctrls_1.refreshEnergy             71706960                       # Energy for refresh commands per rank (pJ)
system.mem_ctrls_1.actBackEnergy            718354755                       # Energy for active background per rank (pJ)
system.mem_ctrls_1.preBackEnergy             28737000                       # Energy for precharge background per rank (pJ)
system.mem_ctrls_1.totalEnergy              956690715                       # Total energy per rank (pJ)
system.mem_ctrls_1.averagePower            871.206813                       # Core power per rank (mW)
system.mem_ctrls_1.memoryStateTime::IDLE     42908250                       # Time in different power states
system.mem_ctrls_1.memoryStateTime::REF      36660000                       # Time in different power states
system.mem_ctrls_1.memoryStateTime::PRE_PDN            0                       # Time in different power states
system.mem_ctrls_1.memoryStateTime::ACT    1018566750                       # Time in different power states
system.mem_ctrls_1.memoryStateTime::ACT_PDN            0                       # Time in different power states
system.cpu_voltage_domain.voltage                   1                       # Voltage in Volts
system.cpu_clk_domain.clock                       500                       # Clock period in ticks
system.cpu.dtb.fetch_hits                           0                       # ITB hits
system.cpu.dtb.fetch_misses                         0                       # ITB misses
system.cpu.dtb.fetch_acv                            0                       # ITB acv
system.cpu.dtb.fetch_accesses                       0                       # ITB accesses
system.cpu.dtb.read_hits                            0                       # DTB read hits
system.cpu.dtb.read_misses                          0                       # DTB read misses
system.cpu.dtb.read_acv                             0                       # DTB read access violations
system.cpu.dtb.read_accesses                        0                       # DTB read accesses
system.cpu.dtb.write_hits                           0                       # DTB write hits
system.cpu.dtb.write_misses                         0                       # DTB write misses
system.cpu.dtb.write_acv                            0                       # DTB write access violations
system.cpu.dtb.write_accesses                       0                       # DTB write accesses
system.cpu.dtb.data_hits                            0                       # DTB hits
system.cpu.dtb.data_misses                          0                       # DTB misses
system.cpu.dtb.data_acv                             0                       # DTB access violations
system.cpu.dtb.data_accesses                        0                       # DTB accesses
system.cpu.itb.fetch_hits                           0                       # ITB hits
system.cpu.itb.fetch_misses                         0                       # ITB misses
system.cpu.itb.fetch_acv                            0                       # ITB acv
system.cpu.itb.fetch_accesses                       0                       # ITB accesses
system.cpu.itb.read_hits                            0                       # DTB read hits
system.cpu.itb.read_misses                          0                       # DTB read misses
system.cpu.itb.read_acv                             0                       # DTB read access violations
system.cpu.itb.read_accesses                        0                       # DTB read accesses
system.cpu.itb.write_hits                           0                       # DTB write hits
system.cpu.itb.write_misses                         0                       # DTB write misses
system.cpu.itb.write_acv                            0                       # DTB write access violations
system.cpu.itb.write_accesses                       0                       # DTB write accesses
system.cpu.itb.data_hits                            0                       # DTB hits
system.cpu.itb.data_misses                          0                       # DTB misses
system.cpu.itb.data_acv                             0                       # DTB access violations
system.cpu.itb.data_accesses                        0                       # DTB accesses
system.cpu.numCycles                                0                       # number of cpu cycles simulated
system.cpu.numWorkItemsStarted                      0                       # number of work items this cpu started
system.cpu.numWorkItemsCompleted                    0                       # number of work items this cpu completed
system.cpu.committedInsts                           0                       # Number of instructions committed
system.cpu.committedOps                             0                       # Number of ops (including micro ops) committed
system.cpu.num_int_alu_accesses                     0                       # Number of integer alu accesses
system.cpu.num_fp_alu_accesses                      0                       # Number of float alu accesses
system.cpu.num_func_calls                           0                       # number of times a function call or return occured
system.cpu.num_conditional_control_insts            0                       # number of instructions that are conditional controls
system.cpu.num_int_insts                            0                       # number of integer instructions
system.cpu.num_fp_insts                             0                       # number of float instructions
system.cpu.num_int_register_reads                   0                       # number of times the integer registers were read
system.cpu.num_int_register_writes                  0                       # number of times the integer registers were written
system.cpu.num_fp_register_reads                    0                       # number of times the floating registers were read
system.cpu.num_fp_register_writes                   0                       # number of times the floating registers were written
system.cpu.num_mem_refs                             0                       # number of memory refs
system.cpu.num_load_insts                           0                       # Number of load instructions
system.cpu.num_store_insts                          0                       # Number of store instructions
system.cpu.num_idle_cycles                          0                       # Number of idle cycles
system.cpu.num_busy_cycles                          0                       # Number of busy cycles
system.cpu.not_idle_fraction                        1                       # Percentage of non-idle cycles
system.cpu.idle_fraction                            0                       # Percentage of idle cycles
system.cpu.op_class::No_OpClass                     0                       # Class of executed instruction
system.cpu.op_class::IntAlu                         0                       # Class of executed instruction
system.cpu.op_class::IntMult                        0                       # Class of executed instruction
system.cpu.op_class::IntDiv                         0                       # Class of executed instruction
system.cpu.op_class::FloatAdd                       0                       # Class of executed instruction
system.cpu.op_class::FloatCmp                       0                       # Class of executed instruction
system.cpu.op_class::FloatCvt                       0                       # Class of executed instruction
system.cpu.op_class::FloatMult                      0                       # Class of executed instruction
system.cpu.op_class::FloatDiv                       0                       # Class of executed instruction
system.cpu.op_class::FloatSqrt                      0                       # Class of executed instruction
system.cpu.op_class::SimdAdd                        0                       # Class of executed instruction
system.cpu.op_class::SimdAddAcc                     0                       # Class of executed instruction
system.cpu.op_class::SimdAlu                        0                       # Class of executed instruction
system.cpu.op_class::SimdCmp                        0                       # Class of executed instruction
system.cpu.op_class::SimdCvt                        0                       # Class of executed instruction
system.cpu.op_class::SimdMisc                       0                       # Class of executed instruction
system.cpu.op_class::SimdMult                       0                       # Class of executed instruction
system.cpu.op_class::SimdMultAcc                    0                       # Class of executed instruction
system.cpu.op_class::SimdShift                      0                       # Class of executed instruction
system.cpu.op_class::SimdShiftAcc                   0                       # Class of executed instruction
system.cpu.op_class::SimdSqrt                       0                       # Class of executed instruction
system.cpu.op_class::SimdFloatAdd                   0                       # Class of executed instruction
system.cpu.op_class::SimdFloatAlu                   0                       # Class of executed instruction
system.cpu.op_class::SimdFloatCmp                   0                       # Class of executed instruction
system.cpu.op_class::SimdFloatCvt                   0                       # Class of executed instruction
system.cpu.op_class::SimdFloatDiv                   0                       # Class of executed instruction
system.cpu.op_class::SimdFloatMisc                  0                       # Class of executed instruction
system.cpu.op_class::SimdFloatMult                  0                       # Class of executed instruction
system.cpu.op_class::SimdFloatMultAcc               0                       # Class of executed instruction
system.cpu.op_class::SimdFloatSqrt                  0                       # Class of executed instruction
system.cpu.op_class::MemRead                        0                       # Class of executed instruction
system.cpu.op_class::MemWrite                       0                       # Class of executed instruction
system.cpu.op_class::IprAccess                      0                       # Class of executed instruction
system.cpu.op_class::InstPrefetch                   0                       # Class of executed instruction
system.cpu.op_class::total                          0                       # Class of executed instruction
system.cpu.kern.inst.arm                            0                       # number of arm instructions executed
system.cpu.kern.inst.quiesce                        0                       # number of quiesce instructions executed
system.cpu.kern.inst.hwrei                       2781                       # number of hwrei instructions executed
system.cpu.kern.ipl_count::0                      635     49.15%     49.15% # number of times we switched to this ipl
system.cpu.kern.ipl_count::22                       1      0.08%     49.23% # number of times we switched to this ipl
system.cpu.kern.ipl_count::31                     656     50.77%    100.00% # number of times we switched to this ipl
system.cpu.kern.ipl_count::total                 1292                       # number of times we switched to this ipl
system.cpu.kern.ipl_good::0                       633     49.96%     49.96% # number of times we switched to this ipl from a different ipl
system.cpu.kern.ipl_good::22                        1      0.08%     50.04% # number of times we switched to this ipl from a different ipl
system.cpu.kern.ipl_good::31                      633     49.96%    100.00% # number of times we switched to this ipl from a different ipl
system.cpu.kern.ipl_good::total                  1267                       # number of times we switched to this ipl from a different ipl
system.cpu.kern.ipl_ticks::0               1002801500     91.19%     91.19% # number of cycles we spent at this ipl
system.cpu.kern.ipl_ticks::22                 1318000      0.12%     91.31% # number of cycles we spent at this ipl
system.cpu.kern.ipl_ticks::31                95593500      8.69%    100.00% # number of cycles we spent at this ipl
system.cpu.kern.ipl_ticks::total           1099713000                       # number of cycles we spent at this ipl
system.cpu.kern.ipl_used::0                  0.996850                       # fraction of swpipl calls that actually changed the ipl
system.cpu.kern.ipl_used::22                        1                       # fraction of swpipl calls that actually changed the ipl
system.cpu.kern.ipl_used::31                 0.964939                       # fraction of swpipl calls that actually changed the ipl
system.cpu.kern.ipl_used::total              0.980650                       # fraction of swpipl calls that actually changed the ipl
system.cpu.kern.syscall::2                          1      5.56%      5.56% # number of syscalls executed
system.cpu.kern.syscall::3                          2     11.11%     16.67% # number of syscalls executed
system.cpu.kern.syscall::6                          2     11.11%     27.78% # number of syscalls executed
system.cpu.kern.syscall::17                         1      5.56%     33.33% # number of syscalls executed
system.cpu.kern.syscall::19                         1      5.56%     38.89% # number of syscalls executed
system.cpu.kern.syscall::33                         1      5.56%     44.44% # number of syscalls executed
system.cpu.kern.syscall::45                         3     16.67%     61.11% # number of syscalls executed
system.cpu.kern.syscall::48                         1      5.56%     66.67% # number of syscalls executed
system.cpu.kern.syscall::59                         1      5.56%     72.22% # number of syscalls executed
system.cpu.kern.syscall::71                         4     22.22%     94.44% # number of syscalls executed
system.cpu.kern.syscall::74                         1      5.56%    100.00% # number of syscalls executed
system.cpu.kern.syscall::total                     18                       # number of syscalls executed
system.cpu.kern.callpal::swpctx                   118      8.10%      8.10% # number of callpals executed
system.cpu.kern.callpal::tbi                        6      0.41%      8.51% # number of callpals executed
system.cpu.kern.callpal::swpipl                  1107     75.98%     84.49% # number of callpals executed
system.cpu.kern.callpal::rdps                       3      0.21%     84.69% # number of callpals executed
system.cpu.kern.callpal::wrusp                      1      0.07%     84.76% # number of callpals executed
system.cpu.kern.callpal::rdusp                      1      0.07%     84.83% # number of callpals executed
system.cpu.kern.callpal::rti                      184     12.63%     97.46% # number of callpals executed
system.cpu.kern.callpal::callsys                   33      2.26%     99.73% # number of callpals executed
system.cpu.kern.callpal::imb                        4      0.27%    100.00% # number of callpals executed
system.cpu.kern.callpal::total                   1457                       # number of callpals executed
system.cpu.kern.mode_switch::kernel               302                       # number of protection mode switches
system.cpu.kern.mode_switch::user                 181                       # number of protection mode switches
system.cpu.kern.mode_switch::idle                   0                       # number of protection mode switches
system.cpu.kern.mode_good::kernel                 181                      
system.cpu.kern.mode_good::user                   181                      
system.cpu.kern.mode_good::idle                     0                      
system.cpu.kern.mode_switch_good::kernel     0.599338                       # fraction of useful protection mode switches
system.cpu.kern.mode_switch_good::user              1                       # fraction of useful protection mode switches
system.cpu.kern.mode_switch_good::idle            nan                       # fraction of useful protection mode switches
system.cpu.kern.mode_switch_good::total      0.749482                       # fraction of useful protection mode switches
system.cpu.kern.mode_ticks::kernel          774528000     70.43%     70.43% # number of ticks spent at the given mode
system.cpu.kern.mode_ticks::user            325178000     29.57%    100.00% # number of ticks spent at the given mode
system.cpu.kern.mode_ticks::idle                    0      0.00%    100.00% # number of ticks spent at the given mode
system.cpu.kern.swap_context                      118                       # number of times the context was actually changed
system.cpu.dcache.tags.replacements             22752                       # number of replacements
system.cpu.dcache.tags.tagsinuse                  256                       # Cycle average of tags in use
system.cpu.dcache.tags.total_refs              194573                       # Total number of references to valid blocks.
system.cpu.dcache.tags.sampled_refs             22752                       # Sample count of references to valid blocks.
system.cpu.dcache.tags.avg_refs              8.551908                       # Average number of references to valid blocks.
system.cpu.dcache.tags.warmup_cycle                 0                       # Cycle when the warmup percentage was hit.
system.cpu.dcache.tags.occ_blocks::cpu.data     6.876018                       # Average occupied blocks per requestor
system.cpu.dcache.tags.occ_blocks::switch_cpus.data   249.123982                       # Average occupied blocks per requestor
system.cpu.dcache.tags.occ_percent::cpu.data     0.026859                       # Average percentage of cache occupancy
system.cpu.dcache.tags.occ_percent::switch_cpus.data     0.973141                       # Average percentage of cache occupancy
system.cpu.dcache.tags.occ_percent::total            1                       # Average percentage of cache occupancy
system.cpu.dcache.tags.occ_task_id_blocks::1024          256                       # Occupied blocks per task id
system.cpu.dcache.tags.age_task_id_blocks_1024::0           89                       # Occupied blocks per task id
system.cpu.dcache.tags.age_task_id_blocks_1024::1          146                       # Occupied blocks per task id
system.cpu.dcache.tags.age_task_id_blocks_1024::2           21                       # Occupied blocks per task id
system.cpu.dcache.tags.occ_task_id_percent::1024            1                       # Percentage of cache occupancy per task id
system.cpu.dcache.tags.tag_accesses           1220172                       # Number of tag accesses
system.cpu.dcache.tags.data_accesses          1220172                       # Number of data accesses
system.cpu.dcache.ReadReq_hits::switch_cpus.data       133728                       # number of ReadReq hits
system.cpu.dcache.ReadReq_hits::total          133728                       # number of ReadReq hits
system.cpu.dcache.WriteReq_hits::switch_cpus.data        57143                       # number of WriteReq hits
system.cpu.dcache.WriteReq_hits::total          57143                       # number of WriteReq hits
system.cpu.dcache.LoadLockedReq_hits::switch_cpus.data         2099                       # number of LoadLockedReq hits
system.cpu.dcache.LoadLockedReq_hits::total         2099                       # number of LoadLockedReq hits
system.cpu.dcache.StoreCondReq_hits::switch_cpus.data         2378                       # number of StoreCondReq hits
system.cpu.dcache.StoreCondReq_hits::total         2378                       # number of StoreCondReq hits
system.cpu.dcache.demand_hits::switch_cpus.data       190871                       # number of demand (read+write) hits
system.cpu.dcache.demand_hits::total           190871                       # number of demand (read+write) hits
system.cpu.dcache.overall_hits::switch_cpus.data       190871                       # number of overall hits
system.cpu.dcache.overall_hits::total          190871                       # number of overall hits
system.cpu.dcache.ReadReq_misses::switch_cpus.data        34337                       # number of ReadReq misses
system.cpu.dcache.ReadReq_misses::total         34337                       # number of ReadReq misses
system.cpu.dcache.WriteReq_misses::switch_cpus.data        69095                       # number of WriteReq misses
system.cpu.dcache.WriteReq_misses::total        69095                       # number of WriteReq misses
system.cpu.dcache.LoadLockedReq_misses::switch_cpus.data          575                       # number of LoadLockedReq misses
system.cpu.dcache.LoadLockedReq_misses::total          575                       # number of LoadLockedReq misses
system.cpu.dcache.demand_misses::switch_cpus.data       103432                       # number of demand (read+write) misses
system.cpu.dcache.demand_misses::total         103432                       # number of demand (read+write) misses
system.cpu.dcache.overall_misses::switch_cpus.data       103432                       # number of overall misses
system.cpu.dcache.overall_misses::total        103432                       # number of overall misses
system.cpu.dcache.ReadReq_miss_latency::switch_cpus.data   1712303499                       # number of ReadReq miss cycles
system.cpu.dcache.ReadReq_miss_latency::total   1712303499                       # number of ReadReq miss cycles
system.cpu.dcache.WriteReq_miss_latency::switch_cpus.data   4749400119                       # number of WriteReq miss cycles
system.cpu.dcache.WriteReq_miss_latency::total   4749400119                       # number of WriteReq miss cycles
system.cpu.dcache.LoadLockedReq_miss_latency::switch_cpus.data     24839500                       # number of LoadLockedReq miss cycles
system.cpu.dcache.LoadLockedReq_miss_latency::total     24839500                       # number of LoadLockedReq miss cycles
system.cpu.dcache.demand_miss_latency::switch_cpus.data   6461703618                       # number of demand (read+write) miss cycles
system.cpu.dcache.demand_miss_latency::total   6461703618                       # number of demand (read+write) miss cycles
system.cpu.dcache.overall_miss_latency::switch_cpus.data   6461703618                       # number of overall miss cycles
system.cpu.dcache.overall_miss_latency::total   6461703618                       # number of overall miss cycles
system.cpu.dcache.ReadReq_accesses::switch_cpus.data       168065                       # number of ReadReq accesses(hits+misses)
system.cpu.dcache.ReadReq_accesses::total       168065                       # number of ReadReq accesses(hits+misses)
system.cpu.dcache.WriteReq_accesses::switch_cpus.data       126238                       # number of WriteReq accesses(hits+misses)
system.cpu.dcache.WriteReq_accesses::total       126238                       # number of WriteReq accesses(hits+misses)
system.cpu.dcache.LoadLockedReq_accesses::switch_cpus.data         2674                       # number of LoadLockedReq accesses(hits+misses)
system.cpu.dcache.LoadLockedReq_accesses::total         2674                       # number of LoadLockedReq accesses(hits+misses)
system.cpu.dcache.StoreCondReq_accesses::switch_cpus.data         2378                       # number of StoreCondReq accesses(hits+misses)
system.cpu.dcache.StoreCondReq_accesses::total         2378                       # number of StoreCondReq accesses(hits+misses)
system.cpu.dcache.demand_accesses::switch_cpus.data       294303                       # number of demand (read+write) accesses
system.cpu.dcache.demand_accesses::total       294303                       # number of demand (read+write) accesses
system.cpu.dcache.overall_accesses::switch_cpus.data       294303                       # number of overall (read+write) accesses
system.cpu.dcache.overall_accesses::total       294303                       # number of overall (read+write) accesses
system.cpu.dcache.ReadReq_miss_rate::switch_cpus.data     0.204308                       # miss rate for ReadReq accesses
system.cpu.dcache.ReadReq_miss_rate::total     0.204308                       # miss rate for ReadReq accesses
system.cpu.dcache.WriteReq_miss_rate::switch_cpus.data     0.547339                       # miss rate for WriteReq accesses
system.cpu.dcache.WriteReq_miss_rate::total     0.547339                       # miss rate for WriteReq accesses
system.cpu.dcache.LoadLockedReq_miss_rate::switch_cpus.data     0.215034                       # miss rate for LoadLockedReq accesses
system.cpu.dcache.LoadLockedReq_miss_rate::total     0.215034                       # miss rate for LoadLockedReq accesses
system.cpu.dcache.demand_miss_rate::switch_cpus.data     0.351447                       # miss rate for demand accesses
system.cpu.dcache.demand_miss_rate::total     0.351447                       # miss rate for demand accesses
system.cpu.dcache.overall_miss_rate::switch_cpus.data     0.351447                       # miss rate for overall accesses
system.cpu.dcache.overall_miss_rate::total     0.351447                       # miss rate for overall accesses
system.cpu.dcache.ReadReq_avg_miss_latency::switch_cpus.data 49867.591781                       # average ReadReq miss latency
system.cpu.dcache.ReadReq_avg_miss_latency::total 49867.591781                       # average ReadReq miss latency
system.cpu.dcache.WriteReq_avg_miss_latency::switch_cpus.data 68737.247543                       # average WriteReq miss latency
system.cpu.dcache.WriteReq_avg_miss_latency::total 68737.247543                       # average WriteReq miss latency
system.cpu.dcache.LoadLockedReq_avg_miss_latency::switch_cpus.data 43199.130435                       # average LoadLockedReq miss latency
system.cpu.dcache.LoadLockedReq_avg_miss_latency::total 43199.130435                       # average LoadLockedReq miss latency
system.cpu.dcache.demand_avg_miss_latency::switch_cpus.data 62472.964054                       # average overall miss latency
system.cpu.dcache.demand_avg_miss_latency::total 62472.964054                       # average overall miss latency
system.cpu.dcache.overall_avg_miss_latency::switch_cpus.data 62472.964054                       # average overall miss latency
system.cpu.dcache.overall_avg_miss_latency::total 62472.964054                       # average overall miss latency
system.cpu.dcache.blocked_cycles::no_mshrs       391957                       # number of cycles access was blocked
system.cpu.dcache.blocked_cycles::no_targets            0                       # number of cycles access was blocked
system.cpu.dcache.blocked::no_mshrs              7839                       # number of cycles access was blocked
system.cpu.dcache.blocked::no_targets               0                       # number of cycles access was blocked
system.cpu.dcache.avg_blocked_cycles::no_mshrs    50.000893                       # average number of cycles each access was blocked
system.cpu.dcache.avg_blocked_cycles::no_targets          nan                       # average number of cycles each access was blocked
system.cpu.dcache.fast_writes                       0                       # number of fast writes performed
system.cpu.dcache.cache_copies                      0                       # number of cache copies performed
system.cpu.dcache.writebacks::writebacks        13996                       # number of writebacks
system.cpu.dcache.writebacks::total             13996                       # number of writebacks
system.cpu.dcache.ReadReq_mshr_hits::switch_cpus.data        21476                       # number of ReadReq MSHR hits
system.cpu.dcache.ReadReq_mshr_hits::total        21476                       # number of ReadReq MSHR hits
system.cpu.dcache.WriteReq_mshr_hits::switch_cpus.data        59584                       # number of WriteReq MSHR hits
system.cpu.dcache.WriteReq_mshr_hits::total        59584                       # number of WriteReq MSHR hits
system.cpu.dcache.LoadLockedReq_mshr_hits::switch_cpus.data          194                       # number of LoadLockedReq MSHR hits
system.cpu.dcache.LoadLockedReq_mshr_hits::total          194                       # number of LoadLockedReq MSHR hits
system.cpu.dcache.demand_mshr_hits::switch_cpus.data        81060                       # number of demand (read+write) MSHR hits
system.cpu.dcache.demand_mshr_hits::total        81060                       # number of demand (read+write) MSHR hits
system.cpu.dcache.overall_mshr_hits::switch_cpus.data        81060                       # number of overall MSHR hits
system.cpu.dcache.overall_mshr_hits::total        81060                       # number of overall MSHR hits
system.cpu.dcache.ReadReq_mshr_misses::switch_cpus.data        12861                       # number of ReadReq MSHR misses
system.cpu.dcache.ReadReq_mshr_misses::total        12861                       # number of ReadReq MSHR misses
system.cpu.dcache.WriteReq_mshr_misses::switch_cpus.data         9511                       # number of WriteReq MSHR misses
system.cpu.dcache.WriteReq_mshr_misses::total         9511                       # number of WriteReq MSHR misses
system.cpu.dcache.LoadLockedReq_mshr_misses::switch_cpus.data          381                       # number of LoadLockedReq MSHR misses
system.cpu.dcache.LoadLockedReq_mshr_misses::total          381                       # number of LoadLockedReq MSHR misses
system.cpu.dcache.demand_mshr_misses::switch_cpus.data        22372                       # number of demand (read+write) MSHR misses
system.cpu.dcache.demand_mshr_misses::total        22372                       # number of demand (read+write) MSHR misses
system.cpu.dcache.overall_mshr_misses::switch_cpus.data        22372                       # number of overall MSHR misses
system.cpu.dcache.overall_mshr_misses::total        22372                       # number of overall MSHR misses
system.cpu.dcache.WriteReq_mshr_uncacheable::switch_cpus.data            1                       # number of WriteReq MSHR uncacheable
system.cpu.dcache.WriteReq_mshr_uncacheable::total            1                       # number of WriteReq MSHR uncacheable
system.cpu.dcache.overall_mshr_uncacheable_misses::switch_cpus.data            1                       # number of overall MSHR uncacheable misses
system.cpu.dcache.overall_mshr_uncacheable_misses::total            1                       # number of overall MSHR uncacheable misses
system.cpu.dcache.ReadReq_mshr_miss_latency::switch_cpus.data    603939001                       # number of ReadReq MSHR miss cycles
system.cpu.dcache.ReadReq_mshr_miss_latency::total    603939001                       # number of ReadReq MSHR miss cycles
system.cpu.dcache.WriteReq_mshr_miss_latency::switch_cpus.data    739718188                       # number of WriteReq MSHR miss cycles
system.cpu.dcache.WriteReq_mshr_miss_latency::total    739718188                       # number of WriteReq MSHR miss cycles
system.cpu.dcache.LoadLockedReq_mshr_miss_latency::switch_cpus.data     13646250                       # number of LoadLockedReq MSHR miss cycles
system.cpu.dcache.LoadLockedReq_mshr_miss_latency::total     13646250                       # number of LoadLockedReq MSHR miss cycles
system.cpu.dcache.demand_mshr_miss_latency::switch_cpus.data   1343657189                       # number of demand (read+write) MSHR miss cycles
system.cpu.dcache.demand_mshr_miss_latency::total   1343657189                       # number of demand (read+write) MSHR miss cycles
system.cpu.dcache.overall_mshr_miss_latency::switch_cpus.data   1343657189                       # number of overall MSHR miss cycles
system.cpu.dcache.overall_mshr_miss_latency::total   1343657189                       # number of overall MSHR miss cycles
system.cpu.dcache.WriteReq_mshr_uncacheable_latency::switch_cpus.data       223500                       # number of WriteReq MSHR uncacheable cycles
system.cpu.dcache.WriteReq_mshr_uncacheable_latency::total       223500                       # number of WriteReq MSHR uncacheable cycles
system.cpu.dcache.overall_mshr_uncacheable_latency::switch_cpus.data       223500                       # number of overall MSHR uncacheable cycles
system.cpu.dcache.overall_mshr_uncacheable_latency::total       223500                       # number of overall MSHR uncacheable cycles
system.cpu.dcache.ReadReq_mshr_miss_rate::switch_cpus.data     0.076524                       # mshr miss rate for ReadReq accesses
system.cpu.dcache.ReadReq_mshr_miss_rate::total     0.076524                       # mshr miss rate for ReadReq accesses
system.cpu.dcache.WriteReq_mshr_miss_rate::switch_cpus.data     0.075342                       # mshr miss rate for WriteReq accesses
system.cpu.dcache.WriteReq_mshr_miss_rate::total     0.075342                       # mshr miss rate for WriteReq accesses
system.cpu.dcache.LoadLockedReq_mshr_miss_rate::switch_cpus.data     0.142483                       # mshr miss rate for LoadLockedReq accesses
system.cpu.dcache.LoadLockedReq_mshr_miss_rate::total     0.142483                       # mshr miss rate for LoadLockedReq accesses
system.cpu.dcache.demand_mshr_miss_rate::switch_cpus.data     0.076017                       # mshr miss rate for demand accesses
system.cpu.dcache.demand_mshr_miss_rate::total     0.076017                       # mshr miss rate for demand accesses
system.cpu.dcache.overall_mshr_miss_rate::switch_cpus.data     0.076017                       # mshr miss rate for overall accesses
system.cpu.dcache.overall_mshr_miss_rate::total     0.076017                       # mshr miss rate for overall accesses
system.cpu.dcache.ReadReq_avg_mshr_miss_latency::switch_cpus.data 46958.945727                       # average ReadReq mshr miss latency
system.cpu.dcache.ReadReq_avg_mshr_miss_latency::total 46958.945727                       # average ReadReq mshr miss latency
system.cpu.dcache.WriteReq_avg_mshr_miss_latency::switch_cpus.data 77775.017138                       # average WriteReq mshr miss latency
system.cpu.dcache.WriteReq_avg_mshr_miss_latency::total 77775.017138                       # average WriteReq mshr miss latency
system.cpu.dcache.LoadLockedReq_avg_mshr_miss_latency::switch_cpus.data 35816.929134                       # average LoadLockedReq mshr miss latency
system.cpu.dcache.LoadLockedReq_avg_mshr_miss_latency::total 35816.929134                       # average LoadLockedReq mshr miss latency
system.cpu.dcache.demand_avg_mshr_miss_latency::switch_cpus.data 60059.770651                       # average overall mshr miss latency
system.cpu.dcache.demand_avg_mshr_miss_latency::total 60059.770651                       # average overall mshr miss latency
system.cpu.dcache.overall_avg_mshr_miss_latency::switch_cpus.data 60059.770651                       # average overall mshr miss latency
system.cpu.dcache.overall_avg_mshr_miss_latency::total 60059.770651                       # average overall mshr miss latency
system.cpu.dcache.WriteReq_avg_mshr_uncacheable_latency::switch_cpus.data       223500                       # average WriteReq mshr uncacheable latency
system.cpu.dcache.WriteReq_avg_mshr_uncacheable_latency::total       223500                       # average WriteReq mshr uncacheable latency
system.cpu.dcache.overall_avg_mshr_uncacheable_latency::switch_cpus.data       223500                       # average overall mshr uncacheable latency
system.cpu.dcache.overall_avg_mshr_uncacheable_latency::total       223500                       # average overall mshr uncacheable latency
system.cpu.dcache.no_allocate_misses                0                       # Number of misses that were no-allocate
system.cpu.icache.tags.replacements             12294                       # number of replacements
system.cpu.icache.tags.tagsinuse           255.998950                       # Cycle average of tags in use
system.cpu.icache.tags.total_refs              259041                       # Total number of references to valid blocks.
system.cpu.icache.tags.sampled_refs             12294                       # Sample count of references to valid blocks.
system.cpu.icache.tags.avg_refs             21.070522                       # Average number of references to valid blocks.
system.cpu.icache.tags.warmup_cycle                 0                       # Cycle when the warmup percentage was hit.
system.cpu.icache.tags.occ_blocks::cpu.inst     4.658564                       # Average occupied blocks per requestor
system.cpu.icache.tags.occ_blocks::switch_cpus.inst   251.340385                       # Average occupied blocks per requestor
system.cpu.icache.tags.occ_percent::cpu.inst     0.018198                       # Average percentage of cache occupancy
system.cpu.icache.tags.occ_percent::switch_cpus.inst     0.981798                       # Average percentage of cache occupancy
system.cpu.icache.tags.occ_percent::total     0.999996                       # Average percentage of cache occupancy
system.cpu.icache.tags.occ_task_id_blocks::1024          256                       # Occupied blocks per task id
system.cpu.icache.tags.age_task_id_blocks_1024::0          105                       # Occupied blocks per task id
system.cpu.icache.tags.age_task_id_blocks_1024::1           21                       # Occupied blocks per task id
system.cpu.icache.tags.age_task_id_blocks_1024::2          130                       # Occupied blocks per task id
system.cpu.icache.tags.occ_task_id_percent::1024            1                       # Percentage of cache occupancy per task id
system.cpu.icache.tags.tag_accesses            693216                       # Number of tag accesses
system.cpu.icache.tags.data_accesses           693216                       # Number of data accesses
system.cpu.icache.ReadReq_hits::switch_cpus.inst       155488                       # number of ReadReq hits
system.cpu.icache.ReadReq_hits::total          155488                       # number of ReadReq hits
system.cpu.icache.demand_hits::switch_cpus.inst       155488                       # number of demand (read+write) hits
system.cpu.icache.demand_hits::total           155488                       # number of demand (read+write) hits
system.cpu.icache.overall_hits::switch_cpus.inst       155488                       # number of overall hits
system.cpu.icache.overall_hits::total          155488                       # number of overall hits
system.cpu.icache.ReadReq_misses::switch_cpus.inst        14742                       # number of ReadReq misses
system.cpu.icache.ReadReq_misses::total         14742                       # number of ReadReq misses
system.cpu.icache.demand_misses::switch_cpus.inst        14742                       # number of demand (read+write) misses
system.cpu.icache.demand_misses::total          14742                       # number of demand (read+write) misses
system.cpu.icache.overall_misses::switch_cpus.inst        14742                       # number of overall misses
system.cpu.icache.overall_misses::total         14742                       # number of overall misses
system.cpu.icache.ReadReq_miss_latency::switch_cpus.inst    679582205                       # number of ReadReq miss cycles
system.cpu.icache.ReadReq_miss_latency::total    679582205                       # number of ReadReq miss cycles
system.cpu.icache.demand_miss_latency::switch_cpus.inst    679582205                       # number of demand (read+write) miss cycles
system.cpu.icache.demand_miss_latency::total    679582205                       # number of demand (read+write) miss cycles
system.cpu.icache.overall_miss_latency::switch_cpus.inst    679582205                       # number of overall miss cycles
system.cpu.icache.overall_miss_latency::total    679582205                       # number of overall miss cycles
system.cpu.icache.ReadReq_accesses::switch_cpus.inst       170230                       # number of ReadReq accesses(hits+misses)
system.cpu.icache.ReadReq_accesses::total       170230                       # number of ReadReq accesses(hits+misses)
system.cpu.icache.demand_accesses::switch_cpus.inst       170230                       # number of demand (read+write) accesses
system.cpu.icache.demand_accesses::total       170230                       # number of demand (read+write) accesses
system.cpu.icache.overall_accesses::switch_cpus.inst       170230                       # number of overall (read+write) accesses
system.cpu.icache.overall_accesses::total       170230                       # number of overall (read+write) accesses
system.cpu.icache.ReadReq_miss_rate::switch_cpus.inst     0.086600                       # miss rate for ReadReq accesses
system.cpu.icache.ReadReq_miss_rate::total     0.086600                       # miss rate for ReadReq accesses
system.cpu.icache.demand_miss_rate::switch_cpus.inst     0.086600                       # miss rate for demand accesses
system.cpu.icache.demand_miss_rate::total     0.086600                       # miss rate for demand accesses
system.cpu.icache.overall_miss_rate::switch_cpus.inst     0.086600                       # miss rate for overall accesses
system.cpu.icache.overall_miss_rate::total     0.086600                       # miss rate for overall accesses
system.cpu.icache.ReadReq_avg_miss_latency::switch_cpus.inst 46098.372338                       # average ReadReq miss latency
system.cpu.icache.ReadReq_avg_miss_latency::total 46098.372338                       # average ReadReq miss latency
system.cpu.icache.demand_avg_miss_latency::switch_cpus.inst 46098.372338                       # average overall miss latency
system.cpu.icache.demand_avg_miss_latency::total 46098.372338                       # average overall miss latency
system.cpu.icache.overall_avg_miss_latency::switch_cpus.inst 46098.372338                       # average overall miss latency
system.cpu.icache.overall_avg_miss_latency::total 46098.372338                       # average overall miss latency
system.cpu.icache.blocked_cycles::no_mshrs         3283                       # number of cycles access was blocked
system.cpu.icache.blocked_cycles::no_targets            0                       # number of cycles access was blocked
system.cpu.icache.blocked::no_mshrs                48                       # number of cycles access was blocked
system.cpu.icache.blocked::no_targets               0                       # number of cycles access was blocked
system.cpu.icache.avg_blocked_cycles::no_mshrs    68.395833                       # average number of cycles each access was blocked
system.cpu.icache.avg_blocked_cycles::no_targets          nan                       # average number of cycles each access was blocked
system.cpu.icache.fast_writes                       0                       # number of fast writes performed
system.cpu.icache.cache_copies                      0                       # number of cache copies performed
system.cpu.icache.ReadReq_mshr_hits::switch_cpus.inst         2446                       # number of ReadReq MSHR hits
system.cpu.icache.ReadReq_mshr_hits::total         2446                       # number of ReadReq MSHR hits
system.cpu.icache.demand_mshr_hits::switch_cpus.inst         2446                       # number of demand (read+write) MSHR hits
system.cpu.icache.demand_mshr_hits::total         2446                       # number of demand (read+write) MSHR hits
system.cpu.icache.overall_mshr_hits::switch_cpus.inst         2446                       # number of overall MSHR hits
system.cpu.icache.overall_mshr_hits::total         2446                       # number of overall MSHR hits
system.cpu.icache.ReadReq_mshr_misses::switch_cpus.inst        12296                       # number of ReadReq MSHR misses
system.cpu.icache.ReadReq_mshr_misses::total        12296                       # number of ReadReq MSHR misses
system.cpu.icache.demand_mshr_misses::switch_cpus.inst        12296                       # number of demand (read+write) MSHR misses
system.cpu.icache.demand_mshr_misses::total        12296                       # number of demand (read+write) MSHR misses
system.cpu.icache.overall_mshr_misses::switch_cpus.inst        12296                       # number of overall MSHR misses
system.cpu.icache.overall_mshr_misses::total        12296                       # number of overall MSHR misses
system.cpu.icache.ReadReq_mshr_miss_latency::switch_cpus.inst    538079787                       # number of ReadReq MSHR miss cycles
system.cpu.icache.ReadReq_mshr_miss_latency::total    538079787                       # number of ReadReq MSHR miss cycles
system.cpu.icache.demand_mshr_miss_latency::switch_cpus.inst    538079787                       # number of demand (read+write) MSHR miss cycles
system.cpu.icache.demand_mshr_miss_latency::total    538079787                       # number of demand (read+write) MSHR miss cycles
system.cpu.icache.overall_mshr_miss_latency::switch_cpus.inst    538079787                       # number of overall MSHR miss cycles
system.cpu.icache.overall_mshr_miss_latency::total    538079787                       # number of overall MSHR miss cycles
system.cpu.icache.ReadReq_mshr_miss_rate::switch_cpus.inst     0.072232                       # mshr miss rate for ReadReq accesses
system.cpu.icache.ReadReq_mshr_miss_rate::total     0.072232                       # mshr miss rate for ReadReq accesses
system.cpu.icache.demand_mshr_miss_rate::switch_cpus.inst     0.072232                       # mshr miss rate for demand accesses
system.cpu.icache.demand_mshr_miss_rate::total     0.072232                       # mshr miss rate for demand accesses
system.cpu.icache.overall_mshr_miss_rate::switch_cpus.inst     0.072232                       # mshr miss rate for overall accesses
system.cpu.icache.overall_mshr_miss_rate::total     0.072232                       # mshr miss rate for overall accesses
system.cpu.icache.ReadReq_avg_mshr_miss_latency::switch_cpus.inst 43760.555221                       # average ReadReq mshr miss latency
[...]
system.switch_cpus.iew.wb_count                952359                       # cumulative count of insts written-back
system.switch_cpus.iew.wb_producers            465034                       # num instructions producing a value
system.switch_cpus.iew.wb_consumers            620748                       # num instructions consuming a value
system.switch_cpus.iew.wb_penalized                 0                       # number of instrctions required to write to 'other' IQ
system.switch_cpus.iew.wb_rate               0.357148                       # insts written-back per cycle
system.switch_cpus.iew.wb_fanout             0.749151                       # average fanout of values written-back
system.switch_cpus.iew.wb_penalized_rate            0                       # fraction of instructions written-back that wrote to 'other' IQ
system.switch_cpus.commit.commitSquashedInsts       231255                       # The number of squashed insts skipped by commit
system.switch_cpus.commit.commitNonSpecStalls        10519                       # The number of times commit has been forced to stall to communicate backwards
system.switch_cpus.commit.branchMispredicts        11929                       # The number of times a branch was mispredicted
system.switch_cpus.commit.committed_per_cycle::samples      2005050                       # Number of insts commited each cycle
system.switch_cpus.commit.committed_per_cycle::mean     0.429867                       # Number of insts commited each cycle
system.switch_cpus.commit.committed_per_cycle::stdev     1.380735                       # Number of insts commited each cycle
system.switch_cpus.commit.committed_per_cycle::underflows            0      0.00%      0.00% # Number of insts commited each cycle
system.switch_cpus.commit.committed_per_cycle::0      1699303     84.75%     84.75% # Number of insts commited each cycle
system.switch_cpus.commit.committed_per_cycle::1       140927      7.03%     91.78% # Number of insts commited each cycle
system.switch_cpus.commit.committed_per_cycle::2        54072      2.70%     94.48% # Number of insts commited each cycle
system.switch_cpus.commit.committed_per_cycle::3        23368      1.17%     95.64% # Number of insts commited each cycle
system.switch_cpus.commit.committed_per_cycle::4        24744      1.23%     96.88% # Number of insts commited each cycle
system.switch_cpus.commit.committed_per_cycle::5        10394      0.52%     97.39% # Number of insts commited each cycle
system.switch_cpus.commit.committed_per_cycle::6         9251      0.46%     97.86% # Number of insts commited each cycle
system.switch_cpus.commit.committed_per_cycle::7         7650      0.38%     98.24% # Number of insts commited each cycle
system.switch_cpus.commit.committed_per_cycle::8        35341      1.76%    100.00% # Number of insts commited each cycle
system.switch_cpus.commit.committed_per_cycle::overflows            0      0.00%    100.00% # Number of insts commited each cycle
system.switch_cpus.commit.committed_per_cycle::min_value            0                       # Number of insts commited each cycle
system.switch_cpus.commit.committed_per_cycle::max_value            8                       # Number of insts commited each cycle
system.switch_cpus.commit.committed_per_cycle::total      2005050                       # Number of insts commited each cycle
system.switch_cpus.commit.committedInsts       861905                       # Number of instructions committed
system.switch_cpus.commit.committedOps         861905                       # Number of ops (including micro ops) committed
system.switch_cpus.commit.swp_count                 0                       # Number of s/w prefetches committed
system.switch_cpus.commit.refs                 303570                       # Number of memory references committed
system.switch_cpus.commit.loads                161553                       # Number of loads committed
system.switch_cpus.commit.membars                5364                       # Number of memory barriers committed
system.switch_cpus.commit.branches             121075                       # Number of branches committed
system.switch_cpus.commit.fp_insts               4403                       # Number of committed floating point instructions.
system.switch_cpus.commit.int_insts            826999                       # Number of committed integer instructions.
system.switch_cpus.commit.function_calls        11884                       # Number of function calls committed.
system.switch_cpus.commit.op_class_0::No_OpClass        17933      2.08%      2.08% # Class of committed instruction
system.switch_cpus.commit.op_class_0::IntAlu       510813     59.27%     61.35% # Class of committed instruction
system.switch_cpus.commit.op_class_0::IntMult          727      0.08%     61.43% # Class of committed instruction
system.switch_cpus.commit.op_class_0::IntDiv            0      0.00%     61.43% # Class of committed instruction
system.switch_cpus.commit.op_class_0::FloatAdd         1299      0.15%     61.58% # Class of committed instruction
system.switch_cpus.commit.op_class_0::FloatCmp            1      0.00%     61.58% # Class of committed instruction
system.switch_cpus.commit.op_class_0::FloatCvt            2      0.00%     61.58% # Class of committed instruction
system.switch_cpus.commit.op_class_0::FloatMult            1      0.00%     61.58% # Class of committed instruction
system.switch_cpus.commit.op_class_0::FloatDiv          245      0.03%     61.61% # Class of committed instruction
system.switch_cpus.commit.op_class_0::FloatSqrt            0      0.00%     61.61% # Class of committed instruction
system.switch_cpus.commit.op_class_0::SimdAdd            0      0.00%     61.61% # Class of committed instruction
system.switch_cpus.commit.op_class_0::SimdAddAcc            0      0.00%     61.61% # Class of committed instruction
system.switch_cpus.commit.op_class_0::SimdAlu            0      0.00%     61.61% # Class of committed instruction
system.switch_cpus.commit.op_class_0::SimdCmp            0      0.00%     61.61% # Class of committed instruction
system.switch_cpus.commit.op_class_0::SimdCvt            0      0.00%     61.61% # Class of committed instruction
system.switch_cpus.commit.op_class_0::SimdMisc            0      0.00%     61.61% # Class of committed instruction
system.switch_cpus.commit.op_class_0::SimdMult            0      0.00%     61.61% # Class of committed instruction
system.switch_cpus.commit.op_class_0::SimdMultAcc            0      0.00%     61.61% # Class of committed instruction
system.switch_cpus.commit.op_class_0::SimdShift            0      0.00%     61.61% # Class of committed instruction
system.switch_cpus.commit.op_class_0::SimdShiftAcc            0      0.00%     61.61% # Class of committed instruction
system.switch_cpus.commit.op_class_0::SimdSqrt            0      0.00%     61.61% # Class of committed instruction
system.switch_cpus.commit.op_class_0::SimdFloatAdd            0      0.00%     61.61% # Class of committed instruction
system.switch_cpus.commit.op_class_0::SimdFloatAlu            0      0.00%     61.61% # Class of committed instruction
system.switch_cpus.commit.op_class_0::SimdFloatCmp            0      0.00%     61.61% # Class of committed instruction
system.switch_cpus.commit.op_class_0::SimdFloatCvt            0      0.00%     61.61% # Class of committed instruction
system.switch_cpus.commit.op_class_0::SimdFloatDiv            0      0.00%     61.61% # Class of committed instruction
system.switch_cpus.commit.op_class_0::SimdFloatMisc            0      0.00%     61.61% # Class of committed instruction
system.switch_cpus.commit.op_class_0::SimdFloatMult            0      0.00%     61.61% # Class of committed instruction
system.switch_cpus.commit.op_class_0::SimdFloatMultAcc            0      0.00%     61.61% # Class of committed instruction
system.switch_cpus.commit.op_class_0::SimdFloatSqrt            0      0.00%     61.61% # Class of committed instruction
system.switch_cpus.commit.op_class_0::MemRead       166917     19.37%     80.98% # Class of committed instruction
system.switch_cpus.commit.op_class_0::MemWrite       142381     16.52%     97.50% # Class of committed instruction
system.switch_cpus.commit.op_class_0::IprAccess        21586      2.50%    100.00% # Class of committed instruction
system.switch_cpus.commit.op_class_0::InstPrefetch            0      0.00%    100.00% # Class of committed instruction
system.switch_cpus.commit.op_class_0::total       861905                       # Class of committed instruction
system.switch_cpus.commit.bw_lim_events         35341                       # number cycles where commit BW limit reached
system.switch_cpus.rob.rob_reads              3042621                       # The number of ROB reads
system.switch_cpus.rob.rob_writes             2226620                       # The number of ROB writes
system.switch_cpus.timesIdled                   10581                       # Number of times that the entire CPU went into an idle state and unscheduled itself
system.switch_cpus.idleCycles                  621511                       # Total number of cycles that the CPU has spent unscheduled due to idling
system.switch_cpus.committedInsts              844464                       # Number of Instructions Simulated
system.switch_cpus.committedOps                844464                       # Number of Ops (including micro ops) Simulated
system.switch_cpus.cpi                       3.157707                       # CPI: Cycles Per Instruction
system.switch_cpus.cpi_total                 3.157707                       # CPI: Total CPI of All Threads
system.switch_cpus.ipc                       0.316685                       # IPC: Instructions Per Cycle
system.switch_cpus.ipc_total                 0.316685                       # IPC: Total IPC of All Threads
system.switch_cpus.int_regfile_reads          1317618                       # number of integer regfile reads
system.switch_cpus.int_regfile_writes          660558                       # number of integer regfile writes
system.switch_cpus.fp_regfile_reads              3036                       # number of floating regfile reads
system.switch_cpus.fp_regfile_writes             2780                       # number of floating regfile writes
system.switch_cpus.misc_regfile_reads           28731                       # number of misc regfile reads
system.switch_cpus.misc_regfile_writes          16947                       # number of misc regfile writes
system.tol2bus.trans_dist::ReadReq              30180                       # Transaction distribution
system.tol2bus.trans_dist::ReadResp             30180                       # Transaction distribution
system.tol2bus.trans_dist::WriteReq               134                       # Transaction distribution
system.tol2bus.trans_dist::WriteResp              134                       # Transaction distribution
system.tol2bus.trans_dist::Writeback            14568                       # Transaction distribution
system.tol2bus.trans_dist::UpgradeReq               2                       # Transaction distribution
system.tol2bus.trans_dist::UpgradeResp              2                       # Transaction distribution
system.tol2bus.trans_dist::ReadExReq             9792                       # Transaction distribution
system.tol2bus.trans_dist::ReadExResp            9792                       # Transaction distribution
system.tol2bus.pkt_count_system.cpu.icache.mem_side::system.l2.cpu_side        31050                       # Packet count per connected master and slave (bytes)
system.tol2bus.pkt_count_system.cpu.dcache.mem_side::system.l2.cpu_side        63724                       # Packet count per connected master and slave (bytes)
system.tol2bus.pkt_count::total                 94774                       # Packet count per connected master and slave (bytes)
system.tol2bus.pkt_size_system.cpu.icache.mem_side::system.l2.cpu_side       993280                       # Cumulative packet size per connected master and slave (bytes)
system.tol2bus.pkt_size_system.cpu.dcache.mem_side::system.l2.cpu_side      2478000                       # Cumulative packet size per connected master and slave (bytes)
system.tol2bus.pkt_size::total                3471280                       # Cumulative packet size per connected master and slave (bytes)
system.tol2bus.snoops                              10                       # Total snoops (count)
system.tol2bus.snoop_fanout::samples            54676                       # Request fanout histogram
system.tol2bus.snoop_fanout::mean                   1                       # Request fanout histogram
system.tol2bus.snoop_fanout::stdev                  0                       # Request fanout histogram
system.tol2bus.snoop_fanout::underflows             0      0.00%      0.00% # Request fanout histogram
system.tol2bus.snoop_fanout::0                      0      0.00%      0.00% # Request fanout histogram
system.tol2bus.snoop_fanout::1                  54676    100.00%    100.00% # Request fanout histogram
system.tol2bus.snoop_fanout::2                      0      0.00%    100.00% # Request fanout histogram
system.tol2bus.snoop_fanout::overflows              0      0.00%    100.00% # Request fanout histogram
system.tol2bus.snoop_fanout::min_value              1                       # Request fanout histogram
system.tol2bus.snoop_fanout::max_value              1                       # Request fanout histogram
system.tol2bus.snoop_fanout::total              54676                       # Request fanout histogram
system.tol2bus.reqLayer0.occupancy           41973000                       # Layer occupancy (ticks)
system.tol2bus.reqLayer0.utilization              3.1                       # Layer utilization (%)
system.tol2bus.respLayer0.occupancy          24500976                       # Layer occupancy (ticks)
system.tol2bus.respLayer0.utilization             1.8                       # Layer utilization (%)
system.tol2bus.respLayer1.occupancy          38783498                       # Layer occupancy (ticks)
system.tol2bus.respLayer1.utilization             2.9                       # Layer utilization (%)
system.tsunami.ethernet.descDMAReads                0                       # Number of descriptors the device read w/ DMA
system.tsunami.ethernet.descDMAWrites               0                       # Number of descriptors the device wrote w/ DMA
system.tsunami.ethernet.descDmaReadBytes            0                       # number of descriptor bytes read w/ DMA
system.tsunami.ethernet.descDmaWriteBytes            0                       # number of descriptor bytes write w/ DMA
system.tsunami.ethernet.postedSwi                   0                       # number of software interrupts posted to CPU
system.tsunami.ethernet.coalescedSwi              nan                       # average number of Swi's coalesced into each post
system.tsunami.ethernet.totalSwi                    0                       # total number of Swi written to ISR
system.tsunami.ethernet.postedRxIdle                0                       # number of rxIdle interrupts posted to CPU
system.tsunami.ethernet.coalescedRxIdle           nan                       # average number of RxIdle's coalesced into each post
system.tsunami.ethernet.totalRxIdle                 0                       # total number of RxIdle written to ISR
system.tsunami.ethernet.postedRxOk                  0                       # number of RxOk interrupts posted to CPU
system.tsunami.ethernet.coalescedRxOk             nan                       # average number of RxOk's coalesced into each post
system.tsunami.ethernet.totalRxOk                   0                       # total number of RxOk written to ISR
system.tsunami.ethernet.postedRxDesc                0                       # number of RxDesc interrupts posted to CPU
system.tsunami.ethernet.coalescedRxDesc           nan                       # average number of RxDesc's coalesced into each post
system.tsunami.ethernet.totalRxDesc                 0                       # total number of RxDesc written to ISR
system.tsunami.ethernet.postedTxOk                  0                       # number of TxOk interrupts posted to CPU
system.tsunami.ethernet.coalescedTxOk             nan                       # average number of TxOk's coalesced into each post
system.tsunami.ethernet.totalTxOk                   0                       # total number of TxOk written to ISR
system.tsunami.ethernet.postedTxIdle                0                       # number of TxIdle interrupts posted to CPU
system.tsunami.ethernet.coalescedTxIdle           nan                       # average number of TxIdle's coalesced into each post
system.tsunami.ethernet.totalTxIdle                 0                       # total number of TxIdle written to ISR
system.tsunami.ethernet.postedTxDesc                0                       # number of TxDesc interrupts posted to CPU
system.tsunami.ethernet.coalescedTxDesc           nan                       # average number of TxDesc's coalesced into each post
system.tsunami.ethernet.totalTxDesc                 0                       # total number of TxDesc written to ISR
system.tsunami.ethernet.postedRxOrn                 0                       # number of RxOrn posted to CPU
system.tsunami.ethernet.coalescedRxOrn            nan                       # average number of RxOrn's coalesced into each post
system.tsunami.ethernet.totalRxOrn                  0                       # total number of RxOrn written to ISR
system.tsunami.ethernet.coalescedTotal            nan                       # average number of interrupts coalesced into each post
system.tsunami.ethernet.postedInterrupts            0                       # number of posts to CPU
system.tsunami.ethernet.droppedPackets              0                       # number of packets dropped
system.switch_cpus.kern.inst.arm                    0                       # number of arm instructions executed
system.switch_cpus.kern.inst.quiesce                0                       # number of quiesce instructions executed
system.switch_cpus.kern.inst.hwrei                  0                       # number of hwrei instructions executed
system.switch_cpus.kern.mode_switch::kernel            0                       # number of protection mode switches
system.switch_cpus.kern.mode_switch::user            0                       # number of protection mode switches
system.switch_cpus.kern.mode_switch::idle            0                       # number of protection mode switches
system.switch_cpus.kern.mode_good::kernel            0                      
system.switch_cpus.kern.mode_good::user             0                      
system.switch_cpus.kern.mode_good::idle             0                      
system.switch_cpus.kern.mode_switch_good::kernel          nan                       # fraction of useful protection mode switches
system.switch_cpus.kern.mode_switch_good::user          nan                       # fraction of useful protection mode switches
system.switch_cpus.kern.mode_switch_good::idle          nan                       # fraction of useful protection mode switches
system.switch_cpus.kern.mode_switch_good::total          nan                       # fraction of useful protection mode switches
system.switch_cpus.kern.mode_ticks::kernel            0                       # number of ticks spent at the given mode
system.switch_cpus.kern.mode_ticks::user            0                       # number of ticks spent at the given mode
system.switch_cpus.kern.mode_ticks::idle            0                       # number of ticks spent at the given mode
system.switch_cpus.kern.swap_context                0                       # number of times the context was actually changed

---------- End Simulation Statistics   ----------
