 ****** HSPICE -- D-2010.03-SP1 32-BIT (May 26 2010) winnt ******               
  Copyright (C) 2010 Synopsys, Inc. All Rights Reserved.                        
  Unpublished-rights reserved under US copyright laws.
  This program is protected by law and is subject to the 
  terms and conditions of the license agreement from Synopsys.
  Use of this program is your acceptance to be bound by the 
  license agreement. HSPICE is the trademark of Synopsys, Inc.
  Input File: d:\aut\mt_hw02\dram\main.sp                                       
  lic:  
  lic: FLEXlm: v8.5b 
  lic: USER:   NOVINSYSTEM          HOSTNAME: NOVINSYSTEM-PC 
  lic: HOSTID: 00241d50ceae         PID:      5116 
  lic: Using FLEXlm license file: 
  lic: 27000@elena 
  lic: Checkout 1 hspice 
  lic: License/Maintenance for hspice will expire on 31-dec-2020/2007.9 
  lic: NODE LOCKED license on hostid 00241d50ceae 
  lic:   
 Init: read install configuration file: C:\synopsys\Hspice_D-2010.03-SP1\meta.cfg
1****** HSPICE -- D-2010.03-SP1 32-BIT (May 26 2010) winnt ******               
 ******  
 * **************************************************

  ******  circuit name directory
 circuit number to circuit name directory
   number circuitname                     definition         multiplier
        0 main circuit
        1 xnot1.                          not                1.00 
        2 xnot2.                          not                1.00 
        3 xdecoder.                       decoder            1.00 
        4 xword1.                         word               1.00 
        5 xword2.                         word               1.00 
        6 xword3.                         word               1.00 
        7 xword1.xdram1.                  dram_cell          1.00 
        8 xword1.xdram2.                  dram_cell          1.00 
        9 xword1.xdram3.                  dram_cell          1.00 
       10 xword2.xdram1.                  dram_cell          1.00 
       11 xword2.xdram2.                  dram_cell          1.00 
       12 xword2.xdram3.                  dram_cell          1.00 
       13 xword3.xdram1.                  dram_cell          1.00 
       14 xword3.xdram2.                  dram_cell          1.00 
       15 xword3.xdram3.                  dram_cell          1.00 
  **warning** (d:\aut\mt_hw02\dram\main.sp:24) Both nodes of element vgnd are connected together; Line ignored.
 Warning:  Acde = 1 may be too small in BSIM4 model nmos with w=7.2e-007 l=3.6e-007.

 Warning:  Acde = 1 may be too small in BSIM4 model nmos with w=3e-007 l=2e-007.

 Warning:  Acde = 1 may be too small in BSIM4 model nmos with w=9.52e-007 l=1.8e-007.

 Warning:  Acde = 1 may be too small in BSIM4 model nmos with w=1.62e-006 l=1.8e-007.

 Warning:  Acde = 1 may be too small in BSIM4 model pmos with w=1.8e-006 l=3.6e-007.

 Warning:  Acde = 1 may be too small in BSIM4 model pmos with w=2e-006 l=1.8e-007.

 
  **warning** (d:\aut\mt_hw02\dram\Cell\Cell.sp:21) No connections on node bl_1; Node ignored.
 **warning**  No DC path to ground from node        0:vps1             defined in subckt 0               ; Connected by HSPICE with gdcpath



 **warning** the following singular supplies were terminated to 1 meg resistor 
   supply       node1            node2
  v_in33                  0:in33             defined in subckt 0                     0:0                defined in subckt 0               
  vpc                     0:vps              defined in subckt 0                     0:0                defined in subckt 0               
      
 **info** set option symb=1 internally to help for convergence.
 *****************************************************************
 ******  option summary
 ******
 runlvl  = 5         bypass  = 2         
  Opening plot unit= 79
 file=d:\aut\mt_hw02\dram\main.pa0                                             


 **info** dc convergence failure, 
 resetting dcon option to 1 and retrying

 **info** dc convergence successful
 you can increase the efficiency of the
 operating point calculation by setting dcon= 1
 in the .option statement
1****** HSPICE -- D-2010.03-SP1 32-BIT (May 26 2010) winnt ******               
 ******  
 * **************************************************

  ******  operating point information tnom=  25.000 temp=  25.000 *****
 ***** operating point status is all       simulation time is     0.     
     node    =voltage       node    =voltage       node    =voltage

 + 0:bl1_not =   1.0827   0:bl2_not =   1.0827   0:bl3_not =   1.0827 
 + 0:bl_1    =   0.       0:bl_2    =   0.       0:bl_3    =   0.     
 + 0:in11    =   0.       0:in11!   =   1.7490   0:in22    =   0.     
 + 0:in22!   =   1.7490   0:in33    =   0.       0:vdd     =   1.8000 
 + 0:vps     =   0.       0:vps1    =   1.0513   0:vps2    =   1.0513 
 + 0:vps3    =   1.0513   0:wl1     =   0.       0:wl2     = 193.8078m
 + 0:wl3     = 193.8078m  0:wl4     =  93.6112m  4:bl11    =   1.0827 
 + 4:bl21    =   1.0827   4:bl33    =   1.0827   5:bl11    =   1.0827 
 + 5:bl21    =   1.0827   5:bl33    =   1.0827   6:bl11    =   1.0827 
 + 6:bl21    =   1.0827   6:bl33    =   1.0827   7:1       = 120.2817m
 + 7:3       =   3.0000   7:7       = 120.2818m  8:1       = 120.2817m
 + 8:3       =   3.0000   8:7       = 120.2818m  9:1       = 120.2817m
 + 9:3       =   3.0000   9:7       = 120.2818m 10:1       = 273.9822m
 +10:3       =   3.0000  10:7       = 273.9822m 11:1       = 273.9822m
 +11:3       =   3.0000  11:7       = 273.9822m 12:1       = 273.9822m
 +12:3       =   3.0000  12:7       = 273.9822m 13:1       = 273.9822m
 +13:3       =   3.0000  13:7       = 273.9822m 14:1       = 273.9822m
 +14:3       =   3.0000  14:7       = 273.9822m 15:1       = 273.9822m
 +15:3       =   3.0000  15:7       = 273.9822m


 ****  voltage sources

 subckt                                                              
 element   0:vdd       0:v_in11    0:v_in22    0:v_in33    0:vpc     
  volts       1.8000      0.          0.          0.          0.     
  current  -548.1686u   567.8886n   567.8886n     0.          0.     
  power     986.7035u     0.          0.          0.          0.     

 subckt                xword1.xdr  xword1.xdr  xword1.xdr  xword2.xdr
 element   0:vwl       7:vdd       8:vdd       9:vdd      10:vdd     
  volts       0.          3.0000      3.0000      3.0000      3.0000 
  current   131.2626u  -705.7765u  -705.7765u  -705.7765u  -705.7662u
  power       0.          2.1173m     2.1173m     2.1173m     2.1173m

 subckt    xword2.xdr  xword2.xdr  xword3.xdr  xword3.xdr  xword3.xdr
 element  11:vdd      12:vdd      13:vdd      14:vdd      15:vdd     
  volts       3.0000      3.0000      3.0000      3.0000      3.0000 
  current  -705.7662u  -705.7662u  -705.7662u  -705.7662u  -705.7662u
  power       2.1173m     2.1173m     2.1173m     2.1173m     2.1173m

     total voltage source power dissipation=   20.0425m       watts




 **** mosfets


 subckt    xnot1       xnot1       xnot2       xnot2       xdecoder  
 element   1:mp        1:mn        2:mp        2:mn        3:mn11    
 model     0:pmos      0:nmos      0:pmos      0:nmos      0:nmos    
 region        Linear      Cutoff      Linear      Cutoff      Cutoff
  id        -11.0946u    57.5472p   -11.0946u    57.5472p     0.     
  ibs      -8.375e-19   4.404e-19  -8.375e-19   4.404e-19     0.     
  ibd        59.6514f    -1.7590p    59.6514f    -1.7590p     0.     
  vgs        -1.8000      0.         -1.8000      0.          0.     
  vds       -51.0247m     1.7490    -51.0247m     1.7490      0.     
  vbs         0.          0.          0.          0.          0.     
  vth      -418.9569m   469.6332m  -418.9569m   469.6332m   469.9773m
  vdsat      -1.1330     40.2387m    -1.1330     40.2387m    40.2388m
  vod        -1.3810   -469.6332m    -1.3810   -469.6332m  -469.9773m
  beta      166.3605u     1.4938m   166.3605u     1.4938m     1.4931m
  gam eff   488.0000m   528.0000m   488.0000m   528.0000m   528.0000m
  gm          4.0236u     1.4057n     4.0236u     1.4057n     0.     
  gds       212.3641u     4.7596p   212.3641u     4.7596p     2.0217n
  gmb         3.2048u   520.7056p     3.2048u   520.7056p     0.     
  cdtot      11.3241f   434.3191a    11.3241f   434.3191a   643.3722a
  cgtot      18.2401f     2.1354f    18.2401f     2.1354f     2.2430f
  cstot       7.9235f   858.9400a     7.9235f   858.9400a   858.9386a
  cbtot       6.0007f     2.5075f     6.0007f     2.5075f     2.6089f
  cgs         9.9680f   284.1515a     9.9680f   284.1515a   284.1465a
  cgd         8.7055f   176.4422a     8.7055f   176.4422a   284.0913a



 subckt    xdecoder    xdecoder    xdecoder    xdecoder    xdecoder  
 element   3:mn12      3:mp1       3:mn21      3:mn22      3:mp2     
 model     0:nmos      0:pmos      0:nmos      0:nmos      0:pmos    
 region        Cutoff    Saturati      Linear      Cutoff    Saturati
  id          0.       -131.2526u   133.0120u    51.3660p  -130.5603u
  ibs         0.       -8.402e-19   1.860e-19   1.915e-25  -8.399e-19
  ibd         0.          1.8100p  -203.8024f  -203.8026f     1.6162p
  vgs         0.         -1.8000      1.7490      0.         -1.8000 
  vds         0.         -1.8000    193.8078m   193.8078m    -1.6062 
  vbs         0.          0.          0.          0.          0.     
  vth       469.9773m  -418.4981m   469.9390m   469.9391m  -418.5489m
  vdsat      40.2388m    -1.1334    873.3462m    40.2388m    -1.1334 
  vod      -469.9773m    -1.3815      1.2790   -469.9391m    -1.3815 
  beta        1.4931m   166.3954u   785.3861u     1.4932m   166.3915u
  gam eff   528.0000m   488.0000m   528.0000m   528.0000m   488.0000m
  gm          0.        130.0106u    42.2255u     1.2547n   129.1787u
  gds         2.0217n     3.4512u   606.7039u     6.2969p     3.7746u
  gmb         0.         39.7485u    48.8919u   464.8761p    39.5378u
  cdtot     643.3722a     1.3595f     4.1372f   571.2330a     1.4834f
  cgtot       2.2430f    15.0921f     6.4887f     2.1911f    15.1988f
  cstot     858.9386a    10.6058f     3.1593f   858.9398a    10.6056f
  cbtot       2.6089f     4.6325f     2.5130f     2.5887f     4.6482f
  cgs       284.1465a    14.6502f     3.6831f   284.1483a    14.6497f
  cgd       284.0913a   715.2011a     3.0162f   232.1740a   822.5669a



 subckt    xdecoder    xdecoder    xdecoder    xdecoder    xdecoder  
 element   3:mn31      3:mn32      3:mp3       3:mn41      3:mn42    
 model     0:nmos      0:nmos      0:pmos      0:nmos      0:nmos    
 region        Cutoff      Linear    Saturati      Linear      Linear
  id         51.3660p   133.0120u  -130.5603u    68.1067u    68.1067u
  ibs       1.915e-25   1.860e-19  -8.399e-19   1.860e-19   1.860e-19
  ibd      -203.8026f  -203.8024f     1.6162p  -103.3494f  -103.3494f
  vgs         0.          1.7490     -1.8000      1.7490      1.7490 
  vds       193.8078m   193.8078m    -1.6062     93.6112m    93.6112m
  vbs         0.          0.          0.          0.          0.     
  vth       469.9391m   469.9390m  -418.5489m   469.9587m   469.9587m
  vdsat      40.2388m   873.3462m    -1.1334    873.3345m   873.3345m
  vod      -469.9391m     1.2790     -1.3815      1.2790      1.2790 
  beta        1.4932m   785.3861u   166.3915u   785.3767u   785.3767u
  gam eff   528.0000m   528.0000m   488.0000m   528.0000m   528.0000m
  gm          1.2547n    42.2255u   129.1787u    18.5530u    18.5530u
  gds         6.2969p   606.7039u     3.7746u   688.9382u   688.9382u
  gmb       464.8761p    48.8919u    39.5378u    24.3464u    24.3464u
  cdtot     571.2330a     4.1372f     1.4834f     4.4926f     4.4926f
  cgtot       2.1911f     6.4887f    15.1988f     6.5450f     6.5450f
  cstot     858.9398a     3.1593f    10.6056f     2.9647f     2.9647f
  cbtot       2.5887f     2.5130f     4.6482f     2.5762f     2.5762f
  cgs       284.1483a     3.6831f    14.6497f     3.4317f     3.4317f
  cgd       232.1740a     3.0162f   822.5669a     3.3379f     3.3379f



 subckt    xdecoder    xword1.xdr  xword1.xdr  xword1.xdr  xword1.xdr
 element   3:mp4       7:ma1       7:ma2       7:msn1      7:msp1    
 model     0:pmos      0:nmos      0:nmos      0:nmos      0:pmos    
 region      Saturati      Cutoff      Cutoff    Saturati    Saturati
  id       -130.9262u   748.5037f   748.5043f   352.8192u  -352.2425u
  ibs      -8.400e-19  -120.3052f  -120.3053f   9.900e-23    -1.2191a
  ibd         1.7164p    -1.0927p    -1.0927p    -1.0927p     1.9273p
  vgs        -1.8000   -120.2817m  -120.2818m     1.0827     -1.9173 
  vds        -1.7064    962.4317m   962.4529m     1.0827     -1.9173 
  vbs         0.       -120.2817m  -120.2818m     0.          0.     
  vth      -418.5226m   502.6298m   502.6298m   468.3784m  -415.1256m
  vdsat      -1.1334     40.8055m    40.8055m   433.6233m    -1.2074 
  vod        -1.3815   -622.9116m  -622.9116m   614.3350m    -1.5022 
  beta      166.3935u     1.1281m     1.1281m     3.1609m   387.7411u
  gam eff   488.0000m   528.0000m   528.0000m   528.0000m   488.0000m
  gm        129.6611u    18.7787p    18.7787p   779.1183u   304.2138u
  gds         3.5461u    75.5892f    75.5894f    15.0614u    13.8399u
  gmb        39.6503u     6.9297p     6.9297p   310.5162u    95.4363u
  cdtot       1.4290f   191.8392a   191.8387a   749.8630a     1.4935f
  cgtot      15.1537f   533.5706a   533.5705a     3.8860f     8.8429f
  cstot      10.6057f   332.7130a   332.7130a     3.0994f     6.7963f
  cbtot       4.6399f   706.0059a   706.0055a     1.9484f     3.5722f
  cgs        14.6500f   101.9352a   101.9352a     3.4395f     8.2367f
  cgd       777.0552a    74.1292a    74.1291a   373.2969a   782.5685a



 subckt    xword1.xdr  xword1.xdr  xword1.xdr  xword1.xdr  xword1.xdr
 element   7:msn2      7:msp2      7:mpc       8:ma1       8:ma2     
 model     0:nmos      0:pmos      0:nmos      0:nmos      0:nmos    
 region      Saturati    Saturati      Cutoff      Cutoff      Cutoff
  id        352.8355u  -352.2363u   -17.3072a   748.5037f   748.5043f
  ibs       9.903e-23    -1.2188a    -1.0829p  -120.3052f  -120.3053f
  ibd        -1.0927p     1.9273p    -1.0927p    -1.0927p    -1.0927p
  vgs         1.0827     -1.9173    -31.3922m  -120.2817m  -120.2818m
  vds         1.0827     -1.9173    -21.2500u   962.4317m   962.4529m
  vbs         0.          0.         -1.0827   -120.2817m  -120.2818m
  vth       468.3785m  -415.1256m   723.9671m   502.6298m   502.6298m
  vdsat     433.6355m    -1.2074     41.7292m    40.8055m    40.8055m
  vod       614.3563m    -1.5021   -755.3593m  -622.9116m  -622.9116m
  beta        3.1608m   387.7439u     5.3539m     1.1281m     1.1281m
  gam eff   528.0000m   488.0000m   528.0000m   528.0000m   528.0000m
  gm        779.1210u   304.2141u   483.0099a    18.7787p    18.7787p
  gds        15.0623u    13.8400u   814.2256f    75.5892f    75.5894f
  gmb       310.5200u    95.4363u   121.3573a     6.9297p     6.9297p
  cdtot     749.8806a     1.4934f     1.2590f   191.8392a   191.8387a
  cgtot       3.8861f     8.8429f     2.4290f   533.5706a   533.5705a
  cstot       3.0994f     6.7963f     1.6404f   332.7130a   332.7130a
  cbtot       1.9484f     3.5722f     2.8348f   706.0059a   706.0055a
  cgs         3.4395f     8.2367f   623.3875a   101.9352a   101.9352a
  cgd       373.3132a   782.5341a   623.4440a    74.1292a    74.1291a



 subckt    xword1.xdr  xword1.xdr  xword1.xdr  xword1.xdr  xword1.xdr
 element   8:msn1      8:msp1      8:msn2      8:msp2      8:mpc     
 model     0:nmos      0:pmos      0:nmos      0:pmos      0:nmos    
 region      Saturati    Saturati    Saturati    Saturati      Cutoff
  id        352.8192u  -352.2425u   352.8355u  -352.2363u   -17.3068a
  ibs       9.900e-23    -1.2191a   9.903e-23    -1.2188a    -1.0829p
  ibd        -1.0927p     1.9273p    -1.0927p     1.9273p    -1.0927p
  vgs         1.0827     -1.9173      1.0827     -1.9173    -31.3929m
  vds         1.0827     -1.9173      1.0827     -1.9173    -21.2500u
  vbs         0.          0.          0.          0.         -1.0827 
  vth       468.3784m  -415.1256m   468.3785m  -415.1256m   723.9671m
  vdsat     433.6233m    -1.2074    433.6355m    -1.2074     41.7292m
  vod       614.3350m    -1.5022    614.3563m    -1.5021   -755.3601m
  beta        3.1609m   387.7411u     3.1608m   387.7439u     5.3539m
  gam eff   528.0000m   488.0000m   528.0000m   488.0000m   528.0000m
  gm        779.1183u   304.2138u   779.1210u   304.2141u   482.9992a
  gds        15.0614u    13.8399u    15.0623u    13.8400u   814.2077f
  gmb       310.5162u    95.4363u   310.5200u    95.4363u   121.3546a
  cdtot     749.8630a     1.4935f   749.8806a     1.4934f     1.2590f
  cgtot       3.8860f     8.8429f     3.8861f     8.8429f     2.4290f
  cstot       3.0994f     6.7963f     3.0994f     6.7963f     1.6404f
  cbtot       1.9484f     3.5722f     1.9484f     3.5722f     2.8348f
  cgs         3.4395f     8.2367f     3.4395f     8.2367f   623.3870a
  cgd       373.2969a   782.5685a   373.3132a   782.5341a   623.4435a



 subckt    xword1.xdr  xword1.xdr  xword1.xdr  xword1.xdr  xword1.xdr
 element   9:ma1       9:ma2       9:msn1      9:msp1      9:msn2    
 model     0:nmos      0:nmos      0:nmos      0:pmos      0:nmos    
 region        Cutoff      Cutoff    Saturati    Saturati    Saturati
  id        748.5037f   748.5043f   352.8192u  -352.2425u   352.8355u
  ibs      -120.3052f  -120.3053f   9.900e-23    -1.2191a   9.903e-23
  ibd        -1.0927p    -1.0927p    -1.0927p     1.9273p    -1.0927p
  vgs      -120.2817m  -120.2818m     1.0827     -1.9173      1.0827 
  vds       962.4317m   962.4529m     1.0827     -1.9173      1.0827 
  vbs      -120.2817m  -120.2818m     0.          0.          0.     
  vth       502.6298m   502.6298m   468.3784m  -415.1256m   468.3785m
  vdsat      40.8055m    40.8055m   433.6233m    -1.2074    433.6355m
  vod      -622.9116m  -622.9116m   614.3350m    -1.5022    614.3563m
  beta        1.1281m     1.1281m     3.1609m   387.7411u     3.1608m
  gam eff   528.0000m   528.0000m   528.0000m   488.0000m   528.0000m
  gm         18.7787p    18.7787p   779.1183u   304.2138u   779.1210u
  gds        75.5892f    75.5894f    15.0614u    13.8399u    15.0623u
  gmb         6.9297p     6.9297p   310.5162u    95.4363u   310.5200u
  cdtot     191.8392a   191.8387a   749.8630a     1.4935f   749.8806a
  cgtot     533.5706a   533.5705a     3.8860f     8.8429f     3.8861f
  cstot     332.7130a   332.7130a     3.0994f     6.7963f     3.0994f
  cbtot     706.0059a   706.0055a     1.9484f     3.5722f     1.9484f
  cgs       101.9352a   101.9352a     3.4395f     8.2367f     3.4395f
  cgd        74.1292a    74.1291a   373.2969a   782.5685a   373.3132a



 subckt    xword1.xdr  xword1.xdr  xword2.xdr  xword2.xdr  xword2.xdr
 element   9:msp2      9:mpc      10:ma1      10:ma2      10:msn1    
 model     0:pmos      0:nmos      0:nmos      0:nmos      0:nmos    
 region      Saturati      Cutoff      Cutoff      Cutoff    Saturati
  id       -352.2363u   -17.3057a   516.5759f   516.5757f   352.8441u
  ibs        -1.2188a    -1.0829p  -274.0060f  -274.0059f   9.905e-23
  ibd         1.9273p    -1.0927p    -1.0927p    -1.0927p    -1.0927p
  vgs        -1.9173    -31.3951m   -80.1744m   -80.1744m     1.0827 
  vds        -1.9173    -21.2500u   808.7631m   808.7525m     1.0827 
  vbs         0.         -1.0827   -273.9822m  -273.9822m     0.     
  vth      -415.1256m   723.9671m   543.1827m   543.1827m   468.3784m
  vdsat      -1.2074     41.7292m    41.1288m    41.1288m   433.6417m
  vod        -1.5021   -755.3622m  -623.3571m  -623.3571m   614.3669m
  beta      387.7439u     5.3539m     1.0715m     1.0715m     3.1608m
  gam eff   488.0000m   528.0000m   528.0000m   528.0000m   528.0000m
  gm        304.2141u   482.9696a    13.2810p    13.2810p   779.1234u
  gds        13.8400u   814.1582f    52.7753f    52.7754f    15.0624u
  gmb        95.4363u   121.3472a     4.4662p     4.4662p   310.5223u
  cdtot       1.4934f     1.2590f   193.0105a   193.0108a   749.8753a
  cgtot       8.8429f     2.4290f   506.6206a   506.6207a     3.8861f
  cstot       6.7963f     1.6404f   327.7305a   327.7305a     3.0994f
  cbtot       3.5722f     2.8348f   663.8490a   663.8492a     1.9484f
  cgs         8.2367f   623.3855a   106.4607a   106.4608a     3.4395f
  cgd       782.5341a   623.4420a    75.3010a    75.3011a   373.3091a



 subckt    xword2.xdr  xword2.xdr  xword2.xdr  xword2.xdr  xword2.xdr
 element  10:msp1     10:msn2     10:msp2     10:mpc      11:ma1     
 model     0:pmos      0:nmos      0:pmos      0:nmos      0:nmos    
 region      Saturati    Saturati    Saturati      Cutoff      Cutoff
  id       -352.2328u   352.8360u  -352.2359u     8.6483a   516.5759f
  ibs        -1.2187a   9.903e-23    -1.2188a    -1.0829p  -274.0060f
  ibd         1.9273p    -1.0927p     1.9273p    -1.0927p    -1.0927p
  vgs        -1.9173      1.0827     -1.9173    -31.3922m   -80.1744m
  vds        -1.9173      1.0827     -1.9173     10.6249u   808.7631m
  vbs         0.          0.          0.         -1.0827   -273.9822m
  vth      -415.1256m   468.3784m  -415.1256m   723.9713m   543.1827m
  vdsat      -1.2074    433.6356m    -1.2074     41.7292m    41.1288m
  vod        -1.5021    614.3563m    -1.5021   -755.3635m  -623.3571m
  beta      387.7454u     3.1608m   387.7439u     5.3539m     1.0715m
  gam eff   488.0000m   528.0000m   488.0000m   528.0000m   528.0000m
  gm        304.2141u   779.1221u   304.2140u   241.3586a    13.2810p
  gds        13.8397u    15.0620u    13.8397u   813.8532f    52.7753f
  gmb        95.4362u   310.5204u    95.4362u    60.6419a     4.4662p
  cdtot       1.4934f   749.8664a     1.4935f     1.2590f   193.0105a
  cgtot       8.8429f     3.8860f     8.8429f     2.4290f   506.6206a
  cstot       6.7963f     3.0994f     6.7963f     1.6404f   327.7305a
  cbtot       3.5722f     1.9484f     3.5722f     2.8348f   663.8490a
  cgs         8.2367f     3.4395f     8.2367f   623.4298a   106.4607a
  cgd       782.5427a   373.3009a   782.5599a   623.3804a    75.3010a



 subckt    xword2.xdr  xword2.xdr  xword2.xdr  xword2.xdr  xword2.xdr
 element  11:ma2      11:msn1     11:msp1     11:msn2     11:msp2    
 model     0:nmos      0:nmos      0:pmos      0:nmos      0:pmos    
 region        Cutoff    Saturati    Saturati    Saturati    Saturati
  id        516.5757f   352.8441u  -352.2328u   352.8360u  -352.2359u
  ibs      -274.0059f   9.905e-23    -1.2187a   9.903e-23    -1.2188a
  ibd        -1.0927p    -1.0927p     1.9273p    -1.0927p     1.9273p
  vgs       -80.1744m     1.0827     -1.9173      1.0827     -1.9173 
  vds       808.7525m     1.0827     -1.9173      1.0827     -1.9173 
  vbs      -273.9822m     0.          0.          0.          0.     
  vth       543.1827m   468.3784m  -415.1256m   468.3784m  -415.1256m
  vdsat      41.1288m   433.6417m    -1.2074    433.6356m    -1.2074 
  vod      -623.3571m   614.3669m    -1.5021    614.3563m    -1.5021 
  beta        1.0715m     3.1608m   387.7454u     3.1608m   387.7439u
  gam eff   528.0000m   528.0000m   488.0000m   528.0000m   488.0000m
  gm         13.2810p   779.1234u   304.2141u   779.1221u   304.2140u
  gds        52.7754f    15.0624u    13.8397u    15.0620u    13.8397u
  gmb         4.4662p   310.5223u    95.4362u   310.5204u    95.4362u
  cdtot     193.0108a   749.8753a     1.4934f   749.8664a     1.4935f
  cgtot     506.6207a     3.8861f     8.8429f     3.8860f     8.8429f
  cstot     327.7305a     3.0994f     6.7963f     3.0994f     6.7963f
  cbtot     663.8492a     1.9484f     3.5722f     1.9484f     3.5722f
  cgs       106.4608a     3.4395f     8.2367f     3.4395f     8.2367f
  cgd        75.3011a   373.3091a   782.5427a   373.3009a   782.5599a



 subckt    xword2.xdr  xword2.xdr  xword2.xdr  xword2.xdr  xword2.xdr
 element  11:mpc      12:ma1      12:ma2      12:msn1     12:msp1    
 model     0:nmos      0:nmos      0:nmos      0:nmos      0:pmos    
 region        Cutoff      Cutoff      Cutoff    Saturati    Saturati
  id          8.6481a   516.5759f   516.5757f   352.8441u  -352.2328u
  ibs        -1.0829p  -274.0060f  -274.0059f   9.905e-23    -1.2187a
  ibd        -1.0927p    -1.0927p    -1.0927p    -1.0927p     1.9273p
  vgs       -31.3929m   -80.1744m   -80.1744m     1.0827     -1.9173 
  vds        10.6249u   808.7631m   808.7525m     1.0827     -1.9173 
  vbs        -1.0827   -273.9822m  -273.9822m     0.          0.     
  vth       723.9713m   543.1827m   543.1827m   468.3784m  -415.1256m
  vdsat      41.7292m    41.1288m    41.1288m   433.6417m    -1.2074 
  vod      -755.3643m  -623.3571m  -623.3571m   614.3669m    -1.5021 
  beta        5.3539m     1.0715m     1.0715m     3.1608m   387.7454u
  gam eff   528.0000m   528.0000m   528.0000m   528.0000m   488.0000m
  gm        241.3533a    13.2810p    13.2810p   779.1234u   304.2141u
  gds       813.8353f    52.7753f    52.7754f    15.0624u    13.8397u
  gmb        60.6406a     4.4662p     4.4662p   310.5223u    95.4362u
  cdtot       1.2590f   193.0105a   193.0108a   749.8753a     1.4934f
  cgtot       2.4290f   506.6206a   506.6207a     3.8861f     8.8429f
  cstot       1.6404f   327.7305a   327.7305a     3.0994f     6.7963f
  cbtot       2.8348f   663.8490a   663.8492a     1.9484f     3.5722f
  cgs       623.4292a   106.4607a   106.4608a     3.4395f     8.2367f
  cgd       623.3798a    75.3010a    75.3011a   373.3091a   782.5427a



 subckt    xword2.xdr  xword2.xdr  xword2.xdr  xword3.xdr  xword3.xdr
 element  12:msn2     12:msp2     12:mpc      13:ma1      13:ma2     
 model     0:nmos      0:pmos      0:nmos      0:nmos      0:nmos    
 region      Saturati    Saturati      Cutoff      Cutoff      Cutoff
  id        352.8360u  -352.2359u     8.6476a   516.5759f   516.5757f
  ibs       9.903e-23    -1.2188a    -1.0829p  -274.0060f  -274.0059f
  ibd        -1.0927p     1.9273p    -1.0927p    -1.0927p    -1.0927p
  vgs         1.0827     -1.9173    -31.3951m   -80.1744m   -80.1744m
  vds         1.0827     -1.9173     10.6249u   808.7631m   808.7525m
  vbs         0.          0.         -1.0827   -273.9822m  -273.9822m
  vth       468.3784m  -415.1256m   723.9713m   543.1827m   543.1827m
  vdsat     433.6356m    -1.2074     41.7292m    41.1288m    41.1288m
  vod       614.3563m    -1.5021   -755.3665m  -623.3571m  -623.3571m
  beta        3.1608m   387.7439u     5.3539m     1.0715m     1.0715m
  gam eff   528.0000m   488.0000m   528.0000m   528.0000m   528.0000m
  gm        779.1221u   304.2140u   241.3384a    13.2810p    13.2810p
  gds        15.0620u    13.8397u   813.7858f    52.7753f    52.7754f
  gmb       310.5204u    95.4362u    60.6369a     4.4662p     4.4662p
  cdtot     749.8664a     1.4935f     1.2590f   193.0105a   193.0108a
  cgtot       3.8860f     8.8429f     2.4290f   506.6206a   506.6207a
  cstot       3.0994f     6.7963f     1.6404f   327.7305a   327.7305a
  cbtot       1.9484f     3.5722f     2.8348f   663.8490a   663.8492a
  cgs         3.4395f     8.2367f   623.4278a   106.4607a   106.4608a
  cgd       373.3009a   782.5599a   623.3784a    75.3010a    75.3011a



 subckt    xword3.xdr  xword3.xdr  xword3.xdr  xword3.xdr  xword3.xdr
 element  13:msn1     13:msp1     13:msn2     13:msp2     13:mpc     
 model     0:nmos      0:pmos      0:nmos      0:pmos      0:nmos    
 region      Saturati    Saturati    Saturati    Saturati      Cutoff
  id        352.8441u  -352.2328u   352.8360u  -352.2359u     8.6483a
  ibs       9.905e-23    -1.2187a   9.903e-23    -1.2188a    -1.0829p
  ibd        -1.0927p     1.9273p    -1.0927p     1.9273p    -1.0927p
  vgs         1.0827     -1.9173      1.0827     -1.9173    -31.3922m
  vds         1.0827     -1.9173      1.0827     -1.9173     10.6249u
  vbs         0.          0.          0.          0.         -1.0827 
  vth       468.3784m  -415.1256m   468.3784m  -415.1256m   723.9713m
  vdsat     433.6417m    -1.2074    433.6356m    -1.2074     41.7292m
  vod       614.3669m    -1.5021    614.3563m    -1.5021   -755.3635m
  beta        3.1608m   387.7454u     3.1608m   387.7439u     5.3539m
  gam eff   528.0000m   488.0000m   528.0000m   488.0000m   528.0000m
  gm        779.1234u   304.2141u   779.1221u   304.2140u   241.3586a
  gds        15.0624u    13.8397u    15.0620u    13.8397u   813.8532f
  gmb       310.5223u    95.4362u   310.5204u    95.4362u    60.6419a
  cdtot     749.8753a     1.4934f   749.8664a     1.4935f     1.2590f
  cgtot       3.8861f     8.8429f     3.8860f     8.8429f     2.4290f
  cstot       3.0994f     6.7963f     3.0994f     6.7963f     1.6404f
  cbtot       1.9484f     3.5722f     1.9484f     3.5722f     2.8348f
  cgs         3.4395f     8.2367f     3.4395f     8.2367f   623.4298a
  cgd       373.3091a   782.5427a   373.3009a   782.5599a   623.3804a



 subckt    xword3.xdr  xword3.xdr  xword3.xdr  xword3.xdr  xword3.xdr
 element  14:ma1      14:ma2      14:msn1     14:msp1     14:msn2    
 model     0:nmos      0:nmos      0:nmos      0:pmos      0:nmos    
 region        Cutoff      Cutoff    Saturati    Saturati    Saturati
  id        516.5759f   516.5757f   352.8441u  -352.2328u   352.8360u
  ibs      -274.0060f  -274.0059f   9.905e-23    -1.2187a   9.903e-23
  ibd        -1.0927p    -1.0927p    -1.0927p     1.9273p    -1.0927p
  vgs       -80.1744m   -80.1744m     1.0827     -1.9173      1.0827 
  vds       808.7631m   808.7525m     1.0827     -1.9173      1.0827 
  vbs      -273.9822m  -273.9822m     0.          0.          0.     
  vth       543.1827m   543.1827m   468.3784m  -415.1256m   468.3784m
  vdsat      41.1288m    41.1288m   433.6417m    -1.2074    433.6356m
  vod      -623.3571m  -623.3571m   614.3669m    -1.5021    614.3563m
  beta        1.0715m     1.0715m     3.1608m   387.7454u     3.1608m
  gam eff   528.0000m   528.0000m   528.0000m   488.0000m   528.0000m
  gm         13.2810p    13.2810p   779.1234u   304.2141u   779.1221u
  gds        52.7753f    52.7754f    15.0624u    13.8397u    15.0620u
  gmb         4.4662p     4.4662p   310.5223u    95.4362u   310.5204u
  cdtot     193.0105a   193.0108a   749.8753a     1.4934f   749.8664a
  cgtot     506.6206a   506.6207a     3.8861f     8.8429f     3.8860f
  cstot     327.7305a   327.7305a     3.0994f     6.7963f     3.0994f
  cbtot     663.8490a   663.8492a     1.9484f     3.5722f     1.9484f
  cgs       106.4607a   106.4608a     3.4395f     8.2367f     3.4395f
  cgd        75.3010a    75.3011a   373.3091a   782.5427a   373.3009a



 subckt    xword3.xdr  xword3.xdr  xword3.xdr  xword3.xdr  xword3.xdr
 element  14:msp2     14:mpc      15:ma1      15:ma2      15:msn1    
 model     0:pmos      0:nmos      0:nmos      0:nmos      0:nmos    
 region      Saturati      Cutoff      Cutoff      Cutoff    Saturati
  id       -352.2359u     8.6481a   516.5759f   516.5757f   352.8441u
  ibs        -1.2188a    -1.0829p  -274.0060f  -274.0059f   9.905e-23
  ibd         1.9273p    -1.0927p    -1.0927p    -1.0927p    -1.0927p
  vgs        -1.9173    -31.3929m   -80.1744m   -80.1744m     1.0827 
  vds        -1.9173     10.6249u   808.7631m   808.7525m     1.0827 
  vbs         0.         -1.0827   -273.9822m  -273.9822m     0.     
  vth      -415.1256m   723.9713m   543.1827m   543.1827m   468.3784m
  vdsat      -1.2074     41.7292m    41.1288m    41.1288m   433.6417m
  vod        -1.5021   -755.3643m  -623.3571m  -623.3571m   614.3669m
  beta      387.7439u     5.3539m     1.0715m     1.0715m     3.1608m
  gam eff   488.0000m   528.0000m   528.0000m   528.0000m   528.0000m
  gm        304.2140u   241.3532a    13.2810p    13.2810p   779.1234u
  gds        13.8397u   813.8353f    52.7753f    52.7754f    15.0624u
  gmb        95.4362u    60.6405a     4.4662p     4.4662p   310.5223u
  cdtot       1.4935f     1.2590f   193.0105a   193.0108a   749.8753a
  cgtot       8.8429f     2.4290f   506.6206a   506.6207a     3.8861f
  cstot       6.7963f     1.6404f   327.7305a   327.7305a     3.0994f
  cbtot       3.5722f     2.8348f   663.8490a   663.8492a     1.9484f
  cgs         8.2367f   623.4292a   106.4607a   106.4608a     3.4395f
  cgd       782.5599a   623.3798a    75.3010a    75.3011a   373.3091a



 subckt    xword3.xdr  xword3.xdr  xword3.xdr  xword3.xdr
 element  15:msp1     15:msn2     15:msp2     15:mpc     
 model     0:pmos      0:nmos      0:pmos      0:nmos    
 region      Saturati    Saturati    Saturati      Cutoff
  id       -352.2328u   352.8360u  -352.2359u     8.6476a
  ibs        -1.2187a   9.903e-23    -1.2188a    -1.0829p
  ibd         1.9273p    -1.0927p     1.9273p    -1.0927p
  vgs        -1.9173      1.0827     -1.9173    -31.3951m
  vds        -1.9173      1.0827     -1.9173     10.6249u
  vbs         0.          0.          0.         -1.0827 
  vth      -415.1256m   468.3784m  -415.1256m   723.9713m
  vdsat      -1.2074    433.6356m    -1.2074     41.7292m
  vod        -1.5021    614.3563m    -1.5021   -755.3665m
  beta      387.7454u     3.1608m   387.7439u     5.3539m
  gam eff   488.0000m   528.0000m   488.0000m   528.0000m
  gm        304.2141u   779.1221u   304.2140u   241.3385a
  gds        13.8397u    15.0620u    13.8397u   813.7858f
  gmb        95.4362u   310.5204u    95.4362u    60.6369a
  cdtot       1.4934f   749.8664a     1.4935f     1.2590f
  cgtot       8.8429f     3.8860f     8.8429f     2.4290f
  cstot       6.7963f     3.0994f     6.7963f     1.6404f
  cbtot       3.5722f     1.9484f     3.5722f     2.8348f
  cgs         8.2367f     3.4395f     8.2367f   623.4278a
  cgd       782.5427a   373.3009a   782.5599a   623.3784a



 ******  
 * **************************************************

  ******  transient analysis tnom=  25.000 temp=  25.000 *****
x

        time      p_total  
                           
    0.         -986.7035u  
   10.00000p   -986.7035u  
   20.00000p   -986.7035u  
   30.00000p   -986.7035u  
   40.00000p   -986.7035u  
   50.00000p   -986.7035u  
   60.00000p   -986.7035u  
   70.00000p   -986.7035u  
   80.00000p   -986.7035u  
   90.00000p   -986.7035u  
  100.00000p   -986.7035u  
  110.00000p   -986.7035u  
  120.00000p   -986.7035u  
  130.00000p   -986.7035u  
  140.00000p   -986.7035u  
  150.00000p   -986.7035u  
  160.00000p   -986.7035u  
  170.00000p   -986.7035u  
  180.00000p   -986.7035u  
  190.00000p   -986.7035u  
  200.00000p   -986.7035u  
  210.00000p   -986.7035u  
  220.00000p   -986.7035u  
  230.00000p   -986.7035u  
  240.00000p   -986.7035u  
  250.00000p   -986.7035u  
  260.00000p   -986.7035u  
  270.00000p   -986.7035u  
  280.00000p   -986.7035u  
  290.00000p   -986.7035u  
  300.00000p   -986.7035u  
  310.00000p   -986.7035u  
  320.00000p   -986.7035u  
  330.00000p   -986.7035u  
  340.00000p   -986.7035u  
  350.00000p   -986.7035u  
  360.00000p   -986.7035u  
  370.00000p   -986.7035u  
  380.00000p   -986.7035u  
  390.00000p   -986.7035u  
  400.00000p   -986.7035u  
  410.00000p   -986.7035u  
  420.00000p   -986.7035u  
  430.00000p   -986.7035u  
  440.00000p   -986.7035u  
  450.00000p   -986.7035u  
  460.00000p   -986.7035u  
  470.00000p   -986.7035u  
  480.00000p   -986.7035u  
  490.00000p   -986.7035u  
  500.00000p   -986.7035u  
  510.00000p   -986.7035u  
  520.00000p   -986.7035u  
  530.00000p   -986.7035u  
  540.00000p   -986.7035u  
  550.00000p   -986.7035u  
  560.00000p   -986.7035u  
  570.00000p   -986.7035u  
  580.00000p   -986.7035u  
  590.00000p   -986.7035u  
  600.00000p   -986.7035u  
  610.00000p     83.2689m  
  620.00000p     83.2401m  
  630.00000p     83.2221m  
  640.00000p     83.2455m  
  650.00000p     83.2689m  
  660.00000p     83.2829m  
  670.00000p     83.2619m  
  680.00000p     83.2410m  
  690.00000p     83.2201m  
  700.00000p     83.2214m  
  710.00000p     83.2391m  
  720.00000p     83.2568m  
  730.00000p     83.2746m  
  740.00000p     83.2826m  
  750.00000p     83.2661m  
  760.00000p     83.2497m  
  770.00000p     83.2333m  
  780.00000p     83.2168m  
  790.00000p     83.2205m  
  800.00000p     83.2346m  
  810.00000p     83.2486m  
  820.00000p     83.2627m  
  830.00000p     83.2768m  
  840.00000p     83.2840m  
  850.00000p     83.2720m  
  860.00000p     83.2600m  
  870.00000p     83.2480m  
  880.00000p     83.2360m  
  890.00000p     83.2240m  
  900.00000p     83.2120m  
  910.00000p     83.2206m  
  920.00000p     83.2304m  
  930.00000p     83.2402m  
  940.00000p     83.2501m  
  950.00000p     83.2599m  
  960.00000p     83.2697m  
  970.00000p     83.2796m  
  980.00000p     83.2853m  
  990.00000p     83.2772m  
    1.00000n     83.2691m  
    1.01000n     83.2610m  
    1.02000n     83.2529m  
    1.03000n     83.2448m  
    1.04000n     83.2367m  
    1.05000n     83.2286m  
    1.06000n     83.2205m  
    1.07000n     83.2124m  
    1.08000n     83.2189m  
    1.09000n     83.2277m  
    1.10000n     83.2366m  
    1.11000n     83.2454m  
    1.12000n     83.2542m  
    1.13000n     83.2630m  
    1.14000n     83.2718m  
    1.15000n     83.2807m  
    1.16000n     83.2844m  
    1.17000n     83.2745m  
    1.18000n     83.2646m  
    1.19000n     83.2547m  
    1.20000n     83.2448m  
    1.21000n     83.2349m  
    1.22000n     83.2250m  
    1.23000n     83.2151m  
    1.24000n     83.2323m  
    1.25000n     83.2658m  
    1.26000n     83.2674m  
    1.27000n     83.2137m  
    1.28000n     83.2311m  
    1.29000n     83.2514m  
    1.30000n     83.2717m  
    1.31000n     83.2830m  
    1.32000n     83.2670m  
    1.33000n     83.2511m  
    1.34000n     83.2352m  
    1.35000n     83.2193m  
    1.36000n     83.2204m  
    1.37000n     83.2368m  
    1.38000n     83.2531m  
    1.39000n     83.2695m  
    1.40000n     83.2859m  
    1.41000n     83.2725m  
    1.42000n     83.2571m  
    1.43000n     83.2418m  
    1.44000n     83.2264m  
    1.45000n     83.2126m  
    1.46000n     83.2260m  
    1.47000n     83.2395m  
    1.48000n     83.2529m  
    1.49000n     83.2664m  
    1.50000n     83.2798m  
    1.51000n     83.2832m  
    1.52000n     83.2754m  
    1.53000n     83.2676m  
    1.54000n     83.2598m  
    1.55000n     83.2520m  
    1.56000n     83.2442m  
    1.57000n     83.2364m  
    1.58000n     83.2286m  
    1.59000n     83.2208m  
    1.60000n     83.2130m  
    1.61000n     83.2198m  
    1.62000n     83.2289m  
    1.63000n     83.2381m  
    1.64000n     83.2472m  
    1.65000n     83.2564m  
    1.66000n     83.2655m  
    1.67000n     83.2747m  
    1.68000n     83.2839m  
    1.69000n     83.2806m  
    1.70000n     83.2716m  
    1.71000n     83.2625m  
    1.72000n     83.2535m  
    1.73000n     83.2445m  
    1.74000n     83.2354m  
    1.75000n     83.2264m  
    1.76000n     83.2174m  
    1.77000n     83.2153m  
    1.78000n     83.2239m  
    1.79000n     83.2325m  
    1.80000n     83.2411m  
    1.81000n     83.2497m  
    1.82000n     83.2583m  
    1.83000n     83.2668m  
    1.84000n     83.2754m  
    1.85000n     83.2840m  
    1.86000n     83.2814m  
    1.87000n     83.2736m  
    1.88000n     83.2659m  
    1.89000n     83.2581m  
    1.90000n     83.2504m  
    1.91000n     83.2427m  
    1.92000n     83.2349m  
    1.93000n     83.2272m  
    1.94000n     83.2194m  
    1.95000n     83.2121m  
    1.96000n     83.2189m  
    1.97000n     83.2257m  
    1.98000n     83.2325m  
    1.99000n     83.2392m  
    2.00000n     83.2460m  
    2.01000n     83.2528m  
    2.02000n     83.2596m  
    2.03000n     83.2664m  
    2.04000n     83.2732m  
    2.05000n     83.2799m  
    2.06000n     83.2866m  
    2.07000n     83.2815m  
    2.08000n     83.2763m  
    2.09000n     83.2711m  
    2.10000n     83.2659m  
    2.11000n     83.2607m  
    2.12000n     83.2555m  
    2.13000n     83.2504m  
    2.14000n     83.2452m  
    2.15000n     83.2400m  
    2.16000n     83.2348m  
    2.17000n     83.2296m  
    2.18000n     83.2245m  
    2.19000n     83.2193m  
    2.20000n     83.2141m  
    2.21000n     83.2140m  
    2.22000n     83.2176m  
    2.23000n     83.2212m  
    2.24000n     83.2248m  
    2.25000n     83.2284m  
    2.26000n     83.2320m  
    2.27000n     83.2356m  
    2.28000n     83.2392m  
    2.29000n     83.2428m  
    2.30000n     83.2464m  
    2.31000n     83.2500m  
    2.32000n     83.2536m  
    2.33000n     83.2572m  
    2.34000n     83.2608m  
    2.35000n     83.2644m  
    2.36000n     83.2679m  
    2.37000n     83.2715m  
    2.38000n     83.2751m  
    2.39000n     83.2787m  
    2.40000n     83.2823m  
    2.41000n     83.2859m  
    2.42000n     83.2849m  
    2.43000n     83.2827m  
    2.44000n     83.2804m  
    2.45000n     83.2782m  
    2.46000n     83.2760m  
    2.47000n     83.2738m  
    2.48000n     83.2715m  
    2.49000n     83.2693m  
    2.50000n     83.2671m  
    2.51000n     83.2649m  
    2.52000n     83.2626m  
    2.53000n     83.2604m  
    2.54000n     83.2582m  
    2.55000n     83.2560m  
    2.56000n     83.2537m  
    2.57000n     83.2515m  
    2.58000n     83.2493m  
    2.59000n     83.2471m  
    2.60000n     83.2448m  
    2.61000n     83.2426m  
    2.62000n     83.2404m  
    2.63000n     83.2382m  
    2.64000n     83.2359m  
    2.65000n     83.2337m  
    2.66000n     83.2315m  
    2.67000n     83.2293m  
    2.68000n     83.2270m  
    2.69000n     83.2248m  
    2.70000n     83.2226m  
    2.71000n     83.2204m  
    2.72000n     83.2181m  
    2.73000n     83.2159m  
    2.74000n     83.2137m  
    2.75000n     83.2123m  
    2.76000n     83.2141m  
    2.77000n     83.2158m  
    2.78000n     83.2176m  
    2.79000n     83.2193m  
    2.80000n     83.2211m  
    2.81000n     83.2228m  
    2.82000n     83.2246m  
    2.83000n     83.2263m  
    2.84000n     83.2281m  
    2.85000n     83.2298m  
    2.86000n     83.2316m  
    2.87000n     83.2333m  
    2.88000n     83.2351m  
    2.89000n     83.2368m  
    2.90000n     83.2386m  
    2.91000n     83.2403m  
    2.92000n     83.2421m  
    2.93000n     83.2438m  
    2.94000n     83.2456m  
    2.95000n     83.2474m  
    2.96000n     83.2491m  
    2.97000n     83.2509m  
    2.98000n     83.2526m  
    2.99000n     83.2544m  
    3.00000n     83.2561m  
    3.01000n     83.2579m  
    3.02000n     83.2596m  
    3.03000n     83.2614m  
    3.04000n     83.2631m  
    3.05000n     83.2649m  
    3.06000n     83.2666m  
    3.07000n     83.2684m  
    3.08000n     83.2701m  
    3.09000n     83.2719m  
    3.10000n     83.2736m  
    3.11000n     83.2754m  
    3.12000n     83.2771m  
    3.13000n     83.2789m  
    3.14000n     83.2806m  
    3.15000n     83.2824m  
    3.16000n     83.2841m  
    3.17000n     83.2859m  
    3.18000n     83.2859m  
    3.19000n     83.2846m  
    3.20000n     83.2833m  
    3.21000n     83.2819m  
    3.22000n     83.2806m  
    3.23000n     83.2793m  
    3.24000n     83.2780m  
    3.25000n     83.2767m  
    3.26000n     83.2753m  
    3.27000n     83.2740m  
    3.28000n     83.2727m  
    3.29000n     83.2714m  
    3.30000n     83.2700m  
    3.31000n     83.2687m  
    3.32000n     83.2674m  
    3.33000n     83.2661m  
    3.34000n     83.2648m  
    3.35000n     83.2634m  
    3.36000n     83.2621m  
    3.37000n     83.2608m  
    3.38000n     83.2595m  
    3.39000n     83.2582m  
    3.40000n     83.2568m  
    3.41000n     83.2555m  
    3.42000n     83.2542m  
    3.43000n     83.2529m  
    3.44000n     83.2516m  
    3.45000n     83.2502m  
    3.46000n     83.2489m  
    3.47000n     83.2476m  
    3.48000n     83.2463m  
    3.49000n     83.2450m  
    3.50000n     83.2436m  
    3.51000n     83.2423m  
    3.52000n     83.2410m  
    3.53000n     83.2397m  
    3.54000n     83.2384m  
    3.55000n     83.2370m  
    3.56000n     83.2357m  
    3.57000n     83.2344m  
    3.58000n     83.2331m  
    3.59000n     83.2318m  
    3.60000n     83.2304m  
    3.61000n     83.2291m  
    3.62000n     83.2278m  
    3.63000n     83.2265m  
    3.64000n     83.2252m  
    3.65000n     83.2238m  
    3.66000n     83.2225m  
    3.67000n     83.2212m  
    3.68000n     83.2199m  
    3.69000n     83.2186m  
    3.70000n     83.2172m  
    3.71000n     83.2159m  
    3.72000n     83.2146m  
    3.73000n     83.2133m  
    3.74000n     83.2120m  
    3.75000n     83.2130m  
    3.76000n     83.2140m  
    3.77000n     83.2150m  
    3.78000n     83.2161m  
    3.79000n     83.2171m  
    3.80000n     83.2181m  
    3.81000n     83.2192m  
    3.82000n     83.2202m  
    3.83000n     83.2213m  
    3.84000n     83.2223m  
    3.85000n     83.2233m  
    3.86000n     83.2244m  
    3.87000n     83.2254m  
    3.88000n     83.2264m  
    3.89000n     83.2275m  
    3.90000n     83.2285m  
    3.91000n     83.2295m  
    3.92000n     83.2306m  
    3.93000n     83.2316m  
    3.94000n     83.2326m  
    3.95000n     83.2337m  
    3.96000n     83.2347m  
    3.97000n     83.2358m  
    3.98000n     83.2368m  
    3.99000n     83.2378m  
    4.00000n     83.2389m  
    4.01000n     83.2399m  
    4.02000n     83.2409m  
    4.03000n     83.2420m  
    4.04000n     83.2430m  
    4.05000n     83.2440m  
    4.06000n     83.2451m  
    4.07000n     83.2461m  
    4.08000n     83.2472m  
    4.09000n     83.2482m  
    4.10000n     83.2492m  
    4.11000n     83.2503m  
    4.12000n     83.2513m  
    4.13000n     83.2523m  
    4.14000n     83.2534m  
    4.15000n     83.2544m  
    4.16000n     83.2554m  
    4.17000n     83.2565m  
    4.18000n     83.2575m  
    4.19000n     83.2585m  
    4.20000n     83.2596m  
    4.21000n     83.2606m  
    4.22000n     83.2617m  
    4.23000n     83.2627m  
    4.24000n     83.2637m  
    4.25000n     83.2648m  
    4.26000n     83.2658m  
    4.27000n     83.2668m  
    4.28000n     83.2679m  
    4.29000n     83.2689m  
    4.30000n     83.2699m  
    4.31000n     83.2710m  
    4.32000n     83.2720m  
    4.33000n     83.2731m  
    4.34000n     83.2741m  
    4.35000n     83.2751m  
    4.36000n     83.2762m  
    4.37000n     83.2772m  
    4.38000n     83.2782m  
    4.39000n     83.2793m  
    4.40000n     83.2803m  
    4.41000n     83.2813m  
    4.42000n     83.2824m  
    4.43000n     83.2834m  
    4.44000n     83.2844m  
    4.45000n     83.2855m  
    4.46000n     83.2865m  
    4.47000n     83.2854m  
    4.48000n     83.2840m  
    4.49000n     83.2826m  
    4.50000n     83.2812m  
    4.51000n     83.2799m  
    4.52000n     83.2785m  
    4.53000n     83.2771m  
    4.54000n     83.2757m  
    4.55000n     83.2743m  
    4.56000n     83.2729m  
    4.57000n     83.2715m  
    4.58000n     83.2702m  
    4.59000n     83.2688m  
    4.60000n     83.2674m  
    4.61000n     83.2660m  
    4.62000n     83.2646m  
    4.63000n     83.2632m  
    4.64000n     83.2618m  
    4.65000n     83.2605m  
    4.66000n     83.2591m  
    4.67000n     83.2577m  
    4.68000n     83.2563m  
    4.69000n     83.2549m  
    4.70000n     83.2535m  
    4.71000n     83.2521m  
    4.72000n     83.2508m  
    4.73000n     83.2494m  
    4.74000n     83.2480m  
    4.75000n     83.2466m  
    4.76000n     83.2452m  
    4.77000n     83.2438m  
    4.78000n     83.2424m  
    4.79000n     83.2411m  
    4.80000n     83.2397m  
    4.81000n     83.2383m  
    4.82000n     83.2369m  
    4.83000n     83.2355m  
    4.84000n     83.2341m  
    4.85000n     83.2327m  
    4.86000n     83.2313m  
    4.87000n     83.2300m  
    4.88000n     83.2286m  
    4.89000n     83.2272m  
    4.90000n     83.2258m  
    4.91000n     83.2244m  
    4.92000n     83.2230m  
    4.93000n     83.2216m  
    4.94000n     83.2203m  
    4.95000n     83.2189m  
    4.96000n     83.2175m  
    4.97000n     83.2161m  
    4.98000n     83.2147m  
    4.99000n     83.2133m  
    5.00000n     83.2119m  
    5.01000n   -986.6434u  
    5.02000n   -986.5059u  
    5.03000n   -987.4027u  
    5.04000n   -986.8905u  
    5.05000n   -986.3783u  
    5.06000n   -985.8661u  
    5.07000n   -986.6320u  
    5.08000n   -986.6329u  
    5.09000n   -986.6328u  
    5.10000n   -986.6327u  
    5.11000n   -986.6326u  
    5.12000n   -986.6326u  
    5.13000n   -986.6326u  
    5.14000n   -986.6325u  
    5.15000n   -986.6325u  
    5.16000n   -986.6324u  
    5.17000n   -986.6324u  
    5.18000n   -986.6324u  
    5.19000n   -986.6323u  
    5.20000n   -986.6323u  
    5.21000n   -986.6323u  
    5.22000n   -986.6322u  
    5.23000n   -986.6322u  
    5.24000n   -986.6322u  
    5.25000n   -986.6321u  
    5.26000n   -986.6321u  
    5.27000n   -986.6320u  
    5.28000n   -986.6320u  
    5.29000n   -986.6319u  
    5.30000n   -986.6319u  
    5.31000n   -986.6318u  
    5.32000n   -986.6318u  
    5.33000n   -986.6317u  
    5.34000n   -986.6317u  
    5.35000n   -986.6316u  
    5.36000n   -986.6316u  
    5.37000n   -986.6316u  
    5.38000n   -986.6317u  
    5.39000n   -986.6317u  
    5.40000n   -986.6318u  
    5.41000n   -986.6318u  
    5.42000n   -986.6319u  
    5.43000n   -986.6319u  
    5.44000n   -986.6319u  
    5.45000n   -986.6320u  
    5.46000n   -986.6320u  
    5.47000n   -986.6321u  
    5.48000n   -986.6321u  
    5.49000n   -986.6322u  
    5.50000n   -986.6322u  
    5.51000n   -986.6323u  
    5.52000n   -986.6323u  
    5.53000n   -986.6323u  
    5.54000n   -986.6324u  
    5.55000n   -986.6324u  
    5.56000n   -986.6323u  
    5.57000n   -986.6322u  
    5.58000n   -986.6321u  
    5.59000n   -986.6320u  
    5.60000n   -986.6319u  
    5.61000n     83.2698m  
    5.62000n     83.2373m  
    5.63000n     83.2180m  
    5.64000n     83.2490m  
    5.65000n     83.2800m  
    5.66000n     83.2897m  
    5.67000n     83.2761m  
    5.68000n     83.2625m  
    5.69000n     83.2488m  
    5.70000n     83.2352m  
    5.71000n     83.2216m  
    5.72000n     83.2080m  
    5.73000n     83.2072m  
    5.74000n     83.2153m  
    5.75000n     83.2233m  
    5.76000n     83.2314m  
    5.77000n     83.2395m  
    5.78000n     83.2476m  
    5.79000n     83.2556m  
    5.80000n     83.2637m  
    5.81000n     83.2718m  
    5.82000n     83.2799m  
    5.83000n     83.2880m  
    5.84000n     83.2960m  
    5.85000n     83.2896m  
    5.86000n     83.2830m  
    5.87000n     83.2764m  
    5.88000n     83.2698m  
    5.89000n     83.2632m  
    5.90000n     83.2566m  
    5.91000n     83.2500m  
    5.92000n     83.2434m  
    5.93000n     83.2368m  
    5.94000n     83.2302m  
    5.95000n     83.2235m  
    5.96000n     83.2169m  
    5.97000n     83.2103m  
    5.98000n     83.2037m  
    5.99000n     83.2065m  
    6.00000n     83.2115m  
    6.01000n     83.2165m  
    6.02000n     83.2216m  
    6.03000n     83.2266m  
    6.04000n     83.2316m  
    6.05000n     83.2366m  
    6.06000n     83.2416m  
    6.07000n     83.2466m  
    6.08000n     83.2516m  
    6.09000n     83.2566m  
    6.10000n     83.2617m  
    6.11000n     83.2667m  
    6.12000n     83.2717m  
    6.13000n     83.2767m  
    6.14000n     83.2817m  
    6.15000n     83.2867m  
    6.16000n     83.2917m  
    6.17000n     83.2957m  
    6.18000n     83.2923m  
    6.19000n     83.2889m  
    6.20000n     83.2856m  
    6.21000n     83.2822m  
    6.22000n     83.2789m  
    6.23000n     83.2755m  
    6.24000n     83.2721m  
    6.25000n     83.2688m  
    6.26000n     83.2654m  
    6.27000n     83.2621m  
    6.28000n     83.2587m  
    6.29000n     83.2553m  
    6.30000n     83.2520m  
    6.31000n     83.2486m  
    6.32000n     83.2453m  
    6.33000n     83.2419m  
    6.34000n     83.2386m  
    6.35000n     83.2352m  
    6.36000n     83.2318m  
    6.37000n     83.2285m  
    6.38000n     83.2251m  
    6.39000n     83.2218m  
    6.40000n     83.2184m  
    6.41000n     83.2150m  
    6.42000n     83.2117m  
    6.43000n     83.2083m  
    6.44000n     83.2050m  
    6.45000n     83.2029m  
    6.46000n     83.2047m  
    6.47000n     83.2064m  
    6.48000n     83.2081m  
    6.49000n     83.2098m  
    6.50000n     83.2116m  
    6.51000n     83.2133m  
    6.52000n     83.2150m  
    6.53000n     83.2167m  
    6.54000n     83.2184m  
    6.55000n     83.2202m  
    6.56000n     83.2219m  
    6.57000n     83.2236m  
    6.58000n     83.2253m  
    6.59000n     83.2271m  
    6.60000n     83.2288m  
    6.61000n     83.2305m  
    6.62000n     83.2322m  
    6.63000n     83.2340m  
    6.64000n     83.2357m  
    6.65000n     83.2374m  
    6.66000n     83.2391m  
    6.67000n     83.2409m  
    6.68000n     83.2426m  
    6.69000n     83.2443m  
    6.70000n     83.2460m  
    6.71000n     83.2477m  
    6.72000n     83.2495m  
    6.73000n     83.2512m  
    6.74000n     83.2529m  
    6.75000n     83.2546m  
    6.76000n     83.2564m  
    6.77000n     83.2581m  
    6.78000n     83.2598m  
    6.79000n     83.2615m  
    6.80000n     83.2633m  
    6.81000n     83.2650m  
    6.82000n     83.2667m  
    6.83000n     83.2684m  
    6.84000n     83.2702m  
    6.85000n     83.2719m  
    6.86000n     83.2736m  
    6.87000n     83.2753m  
    6.88000n     83.2770m  
    6.89000n     83.2788m  
    6.90000n     83.2805m  
    6.91000n     83.2822m  
    6.92000n     83.2839m  
    6.93000n     83.2857m  
    6.94000n     83.2874m  
    6.95000n     83.2891m  
    6.96000n     83.2908m  
    6.97000n     83.2926m  
    6.98000n     83.2943m  
    6.99000n     83.2960m  
    7.00000n     83.2955m  
    7.01000n     83.2949m  
    7.02000n     83.2943m  
    7.03000n     83.2937m  
    7.04000n     83.2931m  
    7.05000n     83.2925m  
    7.06000n     83.2919m  
    7.07000n     83.2913m  
    7.08000n     83.2907m  
    7.09000n     83.2901m  
    7.10000n     83.2895m  
    7.11000n     83.2889m  
    7.12000n     83.2883m  
    7.13000n     83.2877m  
    7.14000n     83.2871m  
    7.15000n     83.2865m  
    7.16000n     83.2859m  
    7.17000n     83.2853m  
    7.18000n     83.2847m  
    7.19000n     83.2841m  
    7.20000n     83.2835m  
    7.21000n     83.2829m  
    7.22000n     83.2823m  
    7.23000n     83.2817m  
    7.24000n     83.2811m  
    7.25000n     83.2805m  
    7.26000n     83.2799m  
    7.27000n     83.2793m  
    7.28000n     83.2787m  
    7.29000n     83.2781m  
    7.30000n     83.2775m  
    7.31000n     83.2769m  
    7.32000n     83.2763m  
    7.33000n     83.2757m  
    7.34000n     83.2751m  
    7.35000n     83.2745m  
    7.36000n     83.2739m  
    7.37000n     83.2733m  
    7.38000n     83.2727m  
    7.39000n     83.2721m  
    7.40000n     83.2715m  
    7.41000n     83.2709m  
    7.42000n     83.2703m  
    7.43000n     83.2697m  
    7.44000n     83.2691m  
    7.45000n     83.2685m  
    7.46000n     83.2679m  
    7.47000n     83.2673m  
    7.48000n     83.2667m  
    7.49000n     83.2661m  
    7.50000n     83.2655m  
    7.51000n     83.2649m  
    7.52000n     83.2643m  
    7.53000n     83.2637m  
    7.54000n     83.2631m  
    7.55000n     83.2625m  
    7.56000n     83.2620m  
    7.57000n     83.2614m  
    7.58000n     83.2608m  
    7.59000n     83.2602m  
    7.60000n     83.2596m  
    7.61000n     83.2590m  
    7.62000n     83.2584m  
    7.63000n     83.2578m  
    7.64000n     83.2572m  
    7.65000n     83.2566m  
    7.66000n     83.2560m  
    7.67000n     83.2554m  
    7.68000n     83.2548m  
    7.69000n     83.2542m  
    7.70000n     83.2536m  
    7.71000n     83.2530m  
    7.72000n     83.2524m  
    7.73000n     83.2518m  
    7.74000n     83.2512m  
    7.75000n     83.2506m  
    7.76000n     83.2500m  
    7.77000n     83.2494m  
    7.78000n     83.2488m  
    7.79000n     83.2482m  
    7.80000n     83.2476m  
    7.81000n     83.2470m  
    7.82000n     83.2464m  
    7.83000n     83.2458m  
    7.84000n     83.2452m  
    7.85000n     83.2446m  
    7.86000n     83.2440m  
    7.87000n     83.2434m  
    7.88000n     83.2428m  
    7.89000n     83.2422m  
    7.90000n     83.2416m  
    7.91000n     83.2410m  
    7.92000n     83.2404m  
    7.93000n     83.2398m  
    7.94000n     83.2392m  
    7.95000n     83.2386m  
    7.96000n     83.2380m  
    7.97000n     83.2374m  
    7.98000n     83.2368m  
    7.99000n     83.2362m  
    8.00000n     83.2356m  
    8.01000n     83.2350m  
    8.02000n     83.2344m  
    8.03000n     83.2338m  
    8.04000n     83.2332m  
    8.05000n     83.2326m  
    8.06000n     83.2320m  
    8.07000n     83.2314m  
    8.08000n     83.2308m  
    8.09000n     83.2302m  
    8.10000n     83.2296m  
    8.11000n     83.2290m  
    8.12000n     83.2284m  
    8.13000n     83.2278m  
    8.14000n     83.2272m  
    8.15000n     83.2266m  
    8.16000n     83.2260m  
    8.17000n     83.2254m  
    8.18000n     83.2248m  
    8.19000n     83.2242m  
    8.20000n     83.2236m  
    8.21000n     83.2230m  
    8.22000n     83.2224m  
    8.23000n     83.2218m  
    8.24000n     83.2212m  
    8.25000n     83.2206m  
    8.26000n     83.2200m  
    8.27000n     83.2194m  
    8.28000n     83.2188m  
    8.29000n     83.2182m  
    8.30000n     83.2176m  
    8.31000n     83.2170m  
    8.32000n     83.2164m  
    8.33000n     83.2158m  
    8.34000n     83.2152m  
    8.35000n     83.2146m  
    8.36000n     83.2140m  
    8.37000n     83.2134m  
    8.38000n     83.2128m  
    8.39000n     83.2122m  
    8.40000n     83.2116m  
    8.41000n     83.2110m  
    8.42000n     83.2104m  
    8.43000n     83.2098m  
    8.44000n     83.2092m  
    8.45000n     83.2086m  
    8.46000n     83.2080m  
    8.47000n     83.2074m  
    8.48000n     83.2068m  
    8.49000n     83.2062m  
    8.50000n     83.2056m  
    8.51000n     83.2050m  
    8.52000n     83.2044m  
    8.53000n     83.2038m  
    8.54000n     83.2032m  
    8.55000n     83.2026m  
    8.56000n     83.2030m  
    8.57000n     83.2036m  
    8.58000n     83.2043m  
    8.59000n     83.2049m  
    8.60000n     83.2056m  
    8.61000n     83.2062m  
    8.62000n     83.2069m  
    8.63000n     83.2075m  
    8.64000n     83.2082m  
    8.65000n     83.2088m  
    8.66000n     83.2094m  
    8.67000n     83.2101m  
    8.68000n     83.2107m  
    8.69000n     83.2114m  
    8.70000n     83.2120m  
    8.71000n     83.2127m  
    8.72000n     83.2133m  
    8.73000n     83.2140m  
    8.74000n     83.2146m  
    8.75000n     83.2153m  
    8.76000n     83.2159m  
    8.77000n     83.2166m  
    8.78000n     83.2172m  
    8.79000n     83.2179m  
    8.80000n     83.2185m  
    8.81000n     83.2191m  
    8.82000n     83.2198m  
    8.83000n     83.2204m  
    8.84000n     83.2211m  
    8.85000n     83.2217m  
    8.86000n     83.2224m  
    8.87000n     83.2230m  
    8.88000n     83.2237m  
    8.89000n     83.2243m  
    8.90000n     83.2250m  
    8.91000n     83.2256m  
    8.92000n     83.2263m  
    8.93000n     83.2269m  
    8.94000n     83.2275m  
    8.95000n     83.2282m  
    8.96000n     83.2288m  
    8.97000n     83.2295m  
    8.98000n     83.2301m  
    8.99000n     83.2308m  
    9.00000n     83.2314m  
    9.01000n     83.2321m  
    9.02000n     83.2327m  
    9.03000n     83.2334m  
    9.04000n     83.2340m  
    9.05000n     83.2347m  
    9.06000n     83.2353m  
    9.07000n     83.2360m  
    9.08000n     83.2366m  
    9.09000n     83.2372m  
    9.10000n     83.2379m  
    9.11000n     83.2385m  
    9.12000n     83.2392m  
    9.13000n     83.2398m  
    9.14000n     83.2405m  
    9.15000n     83.2411m  
    9.16000n     83.2418m  
    9.17000n     83.2424m  
    9.18000n     83.2431m  
    9.19000n     83.2437m  
    9.20000n     83.2444m  
    9.21000n     83.2450m  
    9.22000n     83.2456m  
    9.23000n     83.2463m  
    9.24000n     83.2469m  
    9.25000n     83.2476m  
    9.26000n     83.2482m  
    9.27000n     83.2489m  
    9.28000n     83.2495m  
    9.29000n     83.2502m  
    9.30000n     83.2508m  
    9.31000n     83.2515m  
    9.32000n     83.2521m  
    9.33000n     83.2528m  
    9.34000n     83.2534m  
    9.35000n     83.2541m  
    9.36000n     83.2547m  
    9.37000n     83.2553m  
    9.38000n     83.2560m  
    9.39000n     83.2566m  
    9.40000n     83.2573m  
    9.41000n     83.2579m  
    9.42000n     83.2586m  
    9.43000n     83.2592m  
    9.44000n     83.2599m  
    9.45000n     83.2605m  
    9.46000n     83.2612m  
    9.47000n     83.2618m  
    9.48000n     83.2625m  
    9.49000n     83.2631m  
    9.50000n     83.2638m  
    9.51000n     83.2644m  
    9.52000n     83.2650m  
    9.53000n     83.2657m  
    9.54000n     83.2663m  
    9.55000n     83.2670m  
    9.56000n     83.2676m  
    9.57000n     83.2683m  
    9.58000n     83.2689m  
    9.59000n     83.2696m  
    9.60000n     83.2702m  
    9.61000n     83.2709m  
    9.62000n     83.2715m  
    9.63000n     83.2722m  
    9.64000n     83.2728m  
    9.65000n     83.2734m  
    9.66000n     83.2741m  
    9.67000n     83.2747m  
    9.68000n     83.2754m  
    9.69000n     83.2760m  
    9.70000n     83.2767m  
    9.71000n     83.2773m  
    9.72000n     83.2780m  
    9.73000n     83.2786m  
    9.74000n     83.2793m  
    9.75000n     83.2799m  
    9.76000n     83.2806m  
    9.77000n     83.2812m  
    9.78000n     83.2819m  
    9.79000n     83.2825m  
    9.80000n     83.2831m  
    9.81000n     83.2838m  
    9.82000n     83.2844m  
    9.83000n     83.2851m  
    9.84000n     83.2857m  
    9.85000n     83.2864m  
    9.86000n     83.2870m  
    9.87000n     83.2877m  
    9.88000n     83.2883m  
    9.89000n     83.2890m  
    9.90000n     83.2896m  
    9.91000n     83.2903m  
    9.92000n     83.2909m  
    9.93000n     83.2916m  
    9.94000n     83.2922m  
    9.95000n     83.2928m  
    9.96000n     83.2935m  
    9.97000n     83.2941m  
    9.98000n     83.2948m  
    9.99000n     83.2954m  
   10.00000n     83.2961m  
   10.01000n   -986.6904u  
   10.02000n   -986.4449u  
   10.03000n   -987.6878u  
   10.04000n   -986.9949u  
   10.05000n   -986.3021u  
   10.06000n   -985.6093u  
   10.07000n   -986.6383u  
   10.08000n   -986.6398u  
   10.09000n   -986.6396u  
   10.10000n   -986.6394u  
   10.11000n   -986.6392u  
   10.12000n   -986.6392u  
   10.13000n   -986.6393u  
   10.14000n   -986.6393u  
   10.15000n   -986.6394u  
   10.16000n   -986.6395u  
   10.17000n   -986.6396u  
   10.18000n   -986.6397u  
   10.19000n   -986.6397u  
   10.20000n   -986.6398u  
   10.21000n   -986.6399u  
   10.22000n   -986.6400u  
   10.23000n   -986.6399u  
   10.24000n   -986.6398u  
   10.25000n   -986.6397u  
   10.26000n   -986.6396u  
   10.27000n   -986.6395u  
   10.28000n   -986.6394u  
   10.29000n   -986.6394u  
   10.30000n   -986.6393u  
   10.31000n   -986.6392u  
   10.32000n   -986.6391u  
   10.33000n   -986.6390u  
   10.34000n   -986.6389u  
   10.35000n   -986.6388u  
   10.36000n   -986.6387u  
   10.37000n   -986.6387u  
   10.38000n   -986.6388u  
   10.39000n   -986.6388u  
   10.40000n   -986.6389u  
   10.41000n   -986.6390u  
   10.42000n   -986.6391u  
   10.43000n   -986.6391u  
   10.44000n   -986.6392u  
   10.45000n   -986.6393u  
   10.46000n   -986.6394u  
   10.47000n   -986.6394u  
   10.48000n   -986.6395u  
   10.49000n   -986.6396u  
   10.50000n   -986.6397u  
   10.51000n   -986.6397u  
   10.52000n   -986.6398u  
   10.53000n   -986.6399u  
   10.54000n   -986.6400u  
   10.55000n   -986.6400u  
   10.56000n   -986.6401u  
   10.57000n   -986.6399u  
   10.58000n   -986.6395u  
   10.59000n   -986.6392u  
   10.60000n   -986.6388u  
   10.61000n     83.2424m  
   10.62000n     83.2642m  
   10.63000n     83.2286m  
   10.64000n     83.2246m  
   10.65000n     83.2394m  
   10.66000n     83.2543m  
   10.67000n     83.2691m  
   10.68000n     83.2829m  
   10.69000n     83.2768m  
   10.70000n     83.2706m  
   10.71000n     83.2644m  
   10.72000n     83.2582m  
   10.73000n     83.2521m  
   10.74000n     83.2459m  
   10.75000n     83.2397m  
   10.76000n     83.2336m  
   10.77000n     83.2274m  
   10.78000n     83.2212m  
   10.79000n     83.2156m  
   10.80000n     83.2206m  
   10.81000n     83.2257m  
   10.82000n     83.2307m  
   10.83000n     83.2357m  
   10.84000n     83.2408m  
   10.85000n     83.2458m  
   10.86000n     83.2509m  
   10.87000n     83.2559m  
   10.88000n     83.2609m  
   10.89000n     83.2660m  
   10.90000n     83.2710m  
   10.91000n     83.2761m  
   10.92000n     83.2811m  
   10.93000n     83.2809m  
   10.94000n     83.2770m  
   10.95000n     83.2731m  
   10.96000n     83.2693m  
   10.97000n     83.2654m  
   10.98000n     83.2615m  
   10.99000n     83.2576m  
   11.00000n     83.2537m  
   11.01000n     83.2498m  
   11.02000n     83.2459m  
   11.03000n     83.2420m  
   11.04000n     83.2381m  
   11.05000n     83.2342m  
   11.06000n     83.2303m  
   11.07000n     83.2265m  
   11.08000n     83.2226m  
   11.09000n     83.2187m  
   11.10000n     83.2158m  
   11.11000n     83.2187m  
   11.12000n     83.2217m  
   11.13000n     83.2246m  
   11.14000n     83.2275m  
   11.15000n     83.2304m  
   11.16000n     83.2333m  
   11.17000n     83.2363m  
   11.18000n     83.2392m  
   11.19000n     83.2421m  
   11.20000n     83.2450m  
   11.21000n     83.2480m  
   11.22000n     83.2509m  
   11.23000n     83.2538m  
   11.24000n     83.2567m  
   11.25000n     83.2596m  
   11.26000n     83.2626m  
   11.27000n     83.2655m  
   11.28000n     83.2684m  
   11.29000n     83.2713m  
   11.30000n     83.2743m  
   11.31000n     83.2772m  
   11.32000n     83.2801m  
   11.33000n     83.2830m  
   11.34000n     83.2816m  
   11.35000n     83.2799m  
   11.36000n     83.2782m  
   11.37000n     83.2766m  
   11.38000n     83.2749m  
   11.39000n     83.2732m  
   11.40000n     83.2715m  
   11.41000n     83.2698m  
   11.42000n     83.2682m  
   11.43000n     83.2665m  
   11.44000n     83.2648m  
   11.45000n     83.2631m  
   11.46000n     83.2614m  
   11.47000n     83.2598m  
   11.48000n     83.2581m  
   11.49000n     83.2564m  
   11.50000n     83.2547m  
   11.51000n     83.2530m  
   11.52000n     83.2514m  
   11.53000n     83.2497m  
   11.54000n     83.2480m  
   11.55000n     83.2463m  
   11.56000n     83.2446m  
   11.57000n     83.2429m  
   11.58000n     83.2413m  
   11.59000n     83.2396m  
   11.60000n     83.2379m  
   11.61000n     83.2362m  
   11.62000n     83.2345m  
   11.63000n     83.2329m  
   11.64000n     83.2312m  
   11.65000n     83.2295m  
   11.66000n     83.2278m  
   11.67000n     83.2261m  
   11.68000n     83.2245m  
   11.69000n     83.2228m  
   11.70000n     83.2211m  
   11.71000n     83.2194m  
   11.72000n     83.2177m  
   11.73000n     83.2161m  
   11.74000n     83.2158m  
   11.75000n     83.2166m  
   11.76000n     83.2173m  
   11.77000n     83.2181m  
   11.78000n     83.2189m  
   11.79000n     83.2196m  
   11.80000n     83.2204m  
   11.81000n     83.2211m  
   11.82000n     83.2219m  
   11.83000n     83.2227m  
   11.84000n     83.2234m  
   11.85000n     83.2242m  
   11.86000n     83.2249m  
   11.87000n     83.2257m  
   11.88000n     83.2265m  
   11.89000n     83.2272m  
   11.90000n     83.2280m  
   11.91000n     83.2287m  
   11.92000n     83.2295m  
   11.93000n     83.2302m  
   11.94000n     83.2310m  
   11.95000n     83.2318m  
   11.96000n     83.2325m  
   11.97000n     83.2333m  
   11.98000n     83.2340m  
   11.99000n     83.2348m  
   12.00000n     83.2356m  
   12.01000n     83.2363m  
   12.02000n     83.2371m  
   12.03000n     83.2378m  
   12.04000n     83.2386m  
   12.05000n     83.2394m  
   12.06000n     83.2401m  
   12.07000n     83.2409m  
   12.08000n     83.2416m  
   12.09000n     83.2424m  
   12.10000n     83.2432m  
   12.11000n     83.2439m  
   12.12000n     83.2447m  
   12.13000n     83.2454m  
   12.14000n     83.2462m  
   12.15000n     83.2469m  
   12.16000n     83.2477m  
   12.17000n     83.2485m  
   12.18000n     83.2492m  
   12.19000n     83.2500m  
   12.20000n     83.2507m  
   12.21000n     83.2515m  
   12.22000n     83.2523m  
   12.23000n     83.2530m  
   12.24000n     83.2538m  
   12.25000n     83.2545m  
   12.26000n     83.2553m  
   12.27000n     83.2561m  
   12.28000n     83.2568m  
   12.29000n     83.2576m  
   12.30000n     83.2583m  
   12.31000n     83.2591m  
   12.32000n     83.2599m  
   12.33000n     83.2606m  
   12.34000n     83.2614m  
   12.35000n     83.2621m  
   12.36000n     83.2629m  
   12.37000n     83.2637m  
   12.38000n     83.2644m  
   12.39000n     83.2652m  
   12.40000n     83.2659m  
   12.41000n     83.2667m  
   12.42000n     83.2674m  
   12.43000n     83.2682m  
   12.44000n     83.2690m  
   12.45000n     83.2697m  
   12.46000n     83.2705m  
   12.47000n     83.2712m  
   12.48000n     83.2720m  
   12.49000n     83.2728m  
   12.50000n     83.2735m  
   12.51000n     83.2743m  
   12.52000n     83.2750m  
   12.53000n     83.2758m  
   12.54000n     83.2766m  
   12.55000n     83.2773m  
   12.56000n     83.2781m  
   12.57000n     83.2788m  
   12.58000n     83.2796m  
   12.59000n     83.2804m  
   12.60000n     83.2811m  
   12.61000n     83.2819m  
   12.62000n     83.2826m  
   12.63000n     83.2831m  
   12.64000n     83.2828m  
   12.65000n     83.2825m  
   12.66000n     83.2822m  
   12.67000n     83.2820m  
   12.68000n     83.2817m  
   12.69000n     83.2814m  
   12.70000n     83.2811m  
   12.71000n     83.2808m  
   12.72000n     83.2805m  
   12.73000n     83.2802m  
   12.74000n     83.2800m  
   12.75000n     83.2797m  
   12.76000n     83.2794m  
   12.77000n     83.2791m  
   12.78000n     83.2788m  
   12.79000n     83.2785m  
   12.80000n     83.2782m  
   12.81000n     83.2780m  
   12.82000n     83.2777m  
   12.83000n     83.2774m  
   12.84000n     83.2771m  
   12.85000n     83.2768m  
   12.86000n     83.2765m  
   12.87000n     83.2762m  
   12.88000n     83.2760m  
   12.89000n     83.2757m  
   12.90000n     83.2754m  
   12.91000n     83.2751m  
   12.92000n     83.2748m  
   12.93000n     83.2745m  
   12.94000n     83.2742m  
   12.95000n     83.2740m  
   12.96000n     83.2737m  
   12.97000n     83.2734m  
   12.98000n     83.2731m  
   12.99000n     83.2728m  
   13.00000n     83.2725m  
   13.01000n     83.2722m  
   13.02000n     83.2720m  
   13.03000n     83.2717m  
   13.04000n     83.2714m  
   13.05000n     83.2711m  
   13.06000n     83.2708m  
   13.07000n     83.2705m  
   13.08000n     83.2702m  
   13.09000n     83.2700m  
   13.10000n     83.2697m  
   13.11000n     83.2694m  
   13.12000n     83.2691m  
   13.13000n     83.2688m  
   13.14000n     83.2685m  
   13.15000n     83.2682m  
   13.16000n     83.2680m  
   13.17000n     83.2677m  
   13.18000n     83.2674m  
   13.19000n     83.2671m  
   13.20000n     83.2668m  
   13.21000n     83.2665m  
   13.22000n     83.2662m  
   13.23000n     83.2660m  
   13.24000n     83.2657m  
   13.25000n     83.2654m  
   13.26000n     83.2651m  
   13.27000n     83.2648m  
   13.28000n     83.2645m  
   13.29000n     83.2642m  
   13.30000n     83.2640m  
   13.31000n     83.2637m  
   13.32000n     83.2634m  
   13.33000n     83.2631m  
   13.34000n     83.2628m  
   13.35000n     83.2625m  
   13.36000n     83.2622m  
   13.37000n     83.2620m  
   13.38000n     83.2617m  
   13.39000n     83.2614m  
   13.40000n     83.2611m  
   13.41000n     83.2608m  
   13.42000n     83.2605m  
   13.43000n     83.2602m  
   13.44000n     83.2600m  
   13.45000n     83.2597m  
   13.46000n     83.2594m  
   13.47000n     83.2591m  
   13.48000n     83.2588m  
   13.49000n     83.2585m  
   13.50000n     83.2582m  
   13.51000n     83.2580m  
   13.52000n     83.2577m  
   13.53000n     83.2574m  
   13.54000n     83.2571m  
   13.55000n     83.2568m  
   13.56000n     83.2565m  
   13.57000n     83.2562m  
   13.58000n     83.2560m  
   13.59000n     83.2557m  
   13.60000n     83.2554m  
   13.61000n     83.2551m  
   13.62000n     83.2548m  
   13.63000n     83.2545m  
   13.64000n     83.2542m  
   13.65000n     83.2540m  
   13.66000n     83.2537m  
   13.67000n     83.2534m  
   13.68000n     83.2531m  
   13.69000n     83.2528m  
   13.70000n     83.2525m  
   13.71000n     83.2522m  
   13.72000n     83.2520m  
   13.73000n     83.2517m  
   13.74000n     83.2514m  
   13.75000n     83.2511m  
   13.76000n     83.2508m  
   13.77000n     83.2505m  
   13.78000n     83.2502m  
   13.79000n     83.2500m  
   13.80000n     83.2497m  
   13.81000n     83.2494m  
   13.82000n     83.2491m  
   13.83000n     83.2488m  
   13.84000n     83.2485m  
   13.85000n     83.2482m  
   13.86000n     83.2480m  
   13.87000n     83.2477m  
   13.88000n     83.2474m  
   13.89000n     83.2471m  
   13.90000n     83.2468m  
   13.91000n     83.2465m  
   13.92000n     83.2462m  
   13.93000n     83.2460m  
   13.94000n     83.2457m  
   13.95000n     83.2454m  
   13.96000n     83.2451m  
   13.97000n     83.2448m  
   13.98000n     83.2445m  
   13.99000n     83.2442m  
   14.00000n     83.2440m  
   14.01000n     83.2437m  
   14.02000n     83.2434m  
   14.03000n     83.2431m  
   14.04000n     83.2428m  
   14.05000n     83.2425m  
   14.06000n     83.2422m  
   14.07000n     83.2420m  
   14.08000n     83.2417m  
   14.09000n     83.2414m  
   14.10000n     83.2411m  
   14.11000n     83.2408m  
   14.12000n     83.2405m  
   14.13000n     83.2402m  
   14.14000n     83.2399m  
   14.15000n     83.2397m  
   14.16000n     83.2394m  
   14.17000n     83.2391m  
   14.18000n     83.2388m  
   14.19000n     83.2385m  
   14.20000n     83.2382m  
   14.21000n     83.2379m  
   14.22000n     83.2377m  
   14.23000n     83.2374m  
   14.24000n     83.2371m  
   14.25000n     83.2368m  
   14.26000n     83.2365m  
   14.27000n     83.2362m  
   14.28000n     83.2359m  
   14.29000n     83.2357m  
   14.30000n     83.2354m  
   14.31000n     83.2351m  
   14.32000n     83.2348m  
   14.33000n     83.2345m  
   14.34000n     83.2342m  
   14.35000n     83.2339m  
   14.36000n     83.2337m  
   14.37000n     83.2334m  
   14.38000n     83.2331m  
   14.39000n     83.2328m  
   14.40000n     83.2325m  
   14.41000n     83.2322m  
   14.42000n     83.2319m  
   14.43000n     83.2317m  
   14.44000n     83.2314m  
   14.45000n     83.2311m  
   14.46000n     83.2308m  
   14.47000n     83.2305m  
   14.48000n     83.2302m  
   14.49000n     83.2299m  
   14.50000n     83.2297m  
   14.51000n     83.2294m  
   14.52000n     83.2291m  
   14.53000n     83.2288m  
   14.54000n     83.2285m  
   14.55000n     83.2282m  
   14.56000n     83.2279m  
   14.57000n     83.2277m  
   14.58000n     83.2274m  
   14.59000n     83.2271m  
   14.60000n     83.2268m  
   14.61000n     83.2265m  
   14.62000n     83.2262m  
   14.63000n     83.2259m  
   14.64000n     83.2257m  
   14.65000n     83.2254m  
   14.66000n     83.2251m  
   14.67000n     83.2248m  
   14.68000n     83.2245m  
   14.69000n     83.2242m  
   14.70000n     83.2239m  
   14.71000n     83.2237m  
   14.72000n     83.2234m  
   14.73000n     83.2231m  
   14.74000n     83.2228m  
   14.75000n     83.2225m  
   14.76000n     83.2222m  
   14.77000n     83.2219m  
   14.78000n     83.2217m  
   14.79000n     83.2214m  
   14.80000n     83.2211m  
   14.81000n     83.2208m  
   14.82000n     83.2205m  
   14.83000n     83.2202m  
   14.84000n     83.2199m  
   14.85000n     83.2197m  
   14.86000n     83.2194m  
   14.87000n     83.2191m  
   14.88000n     83.2188m  
   14.89000n     83.2185m  
   14.90000n     83.2182m  
   14.91000n     83.2179m  
   14.92000n     83.2177m  
   14.93000n     83.2174m  
   14.94000n     83.2171m  
   14.95000n     83.2168m  
   14.96000n     83.2165m  
   14.97000n     83.2162m  
   14.98000n     83.2159m  
   14.99000n     83.2157m  
   15.00000n     83.2154m  
   15.01000n   -986.7510u  
   15.02000n   -986.3746u  
   15.03000n   -987.9841u  
   15.04000n   -987.1037u  
   15.05000n   -986.2232u  
   15.06000n   -985.3428u  
   15.07000n   -986.6427u  
   15.08000n   -986.6457u  
   15.09000n   -986.6447u  
   15.10000n   -986.6437u  
   15.11000n   -986.6428u  
   15.12000n   -986.6428u  
   15.13000n   -986.6431u  
   15.14000n   -986.6434u  
   15.15000n   -986.6437u  
   15.16000n   -986.6440u  
   15.17000n   -986.6443u  
   15.18000n   -986.6446u  
   15.19000n   -986.6449u  
   15.20000n   -986.6452u  
   15.21000n   -986.6455u  
   15.22000n   -986.6458u  
   15.23000n   -986.6457u  
   15.24000n   -986.6454u  
   15.25000n   -986.6452u  
   15.26000n   -986.6449u  
   15.27000n   -986.6446u  
   15.28000n   -986.6444u  
   15.29000n   -986.6441u  
   15.30000n   -986.6439u  
   15.31000n   -986.6436u  
   15.32000n   -986.6433u  
   15.33000n   -986.6431u  
   15.34000n   -986.6428u  
   15.35000n   -986.6426u  
   15.36000n   -986.6423u  
   15.37000n   -986.6420u  
   15.38000n   -986.6422u  
   15.39000n   -986.6424u  
   15.40000n   -986.6426u  
   15.41000n   -986.6428u  
   15.42000n   -986.6430u  
   15.43000n   -986.6432u  
   15.44000n   -986.6434u  
   15.45000n   -986.6436u  
   15.46000n   -986.6437u  
   15.47000n   -986.6439u  
   15.48000n   -986.6441u  
   15.49000n   -986.6443u  
   15.50000n   -986.6445u  
   15.51000n   -986.6447u  
   15.52000n   -986.6449u  
   15.53000n   -986.6451u  
   15.54000n   -986.6453u  
   15.55000n   -986.6455u  
   15.56000n   -986.6457u  
   15.57000n   -986.6459u  
   15.58000n   -986.6449u  
   15.59000n   -986.6435u  
   15.60000n   -986.6421u  
   15.61000n     59.2492m  
   15.62000n     77.8022m  
   15.63000n     62.5651m  
   15.64000n     74.7177m  
   15.65000n     59.4286m  
   15.66000n     67.1843m  
   15.67000n     59.0458m  
   15.68000n     75.3645m  
   15.69000n     59.3730m  
   15.70000n     66.2287m  
   15.71000n     60.3553m  
   15.72000n     58.5691m  
   15.73000n     59.4136m  
   15.74000n     59.3240m  
   15.75000n     58.2418m  
   15.76000n     62.7560m  
   15.77000n     64.7006m  
   15.78000n     79.0254m  
   15.79000n     58.6361m  
   15.80000n     58.7595m  
   15.81000n     78.5978m  
   15.82000n     66.1331m  
   15.83000n     58.8099m  
   15.84000n     67.3222m  
   15.85000n     67.8911m  
   15.86000n     80.2062m  
   15.87000n     74.0362m  
   15.88000n     59.8697m  
   15.89000n     80.4189m  
   15.90000n     65.0967m  
   15.91000n     66.4725m  
   15.92000n     59.2487m  
   15.93000n     59.0910m  
   15.94000n     67.5671m  
   15.95000n     59.0359m  
   15.96000n     59.1664m  
   15.97000n     67.6564m  
   15.98000n     59.4368m  
   15.99000n     59.6182m  
   16.00000n     78.6317m  
   16.01000n     59.7659m  
   16.02000n     62.6137m  
   16.03000n     59.2016m  
   16.04000n     60.6441m  
   16.05000n     80.0255m  
   16.06000n     68.9399m  
   16.07000n     68.6856m  
   16.08000n     59.2166m  
   16.09000n     58.8027m  
   16.10000n     68.9956m  
   16.11000n     60.3064m  
   16.12000n     59.6783m  
   16.13000n     59.0626m  
   16.14000n     59.4250m  
   16.15000n     59.2870m  
   16.16000n     71.7387m  
   16.17000n     59.3988m  
   16.18000n     59.6873m  
   16.19000n     58.6719m  
   16.20000n     69.0092m  
   16.21000n     77.2891m  
   16.22000n     63.5835m  
   16.23000n     71.8025m  
   16.24000n     62.8846m  
   16.25000n     61.8990m  
   16.26000n     59.7179m  
   16.27000n     69.7482m  
   16.28000n     61.0625m  
   16.29000n     58.4865m  
   16.30000n     59.2327m  
   16.31000n     59.0617m  
   16.32000n     76.0951m  
   16.33000n     66.0315m  
   16.34000n     60.8838m  
   16.35000n     61.3624m  
   16.36000n     68.9485m  
   16.37000n     73.3838m  
   16.38000n     59.0925m  
   16.39000n     70.2858m  
   16.40000n     78.6728m  
   16.41000n     69.0233m  
   16.42000n     78.3079m  
   16.43000n     58.8493m  
   16.44000n     66.9216m  
   16.45000n     70.2244m  
   16.46000n     79.4162m  
   16.47000n     77.6874m  
   16.48000n     59.4914m  
   16.49000n     69.3405m  
[...]
  193.49000n     83.2115m  
  193.50000n     83.2108m  
  193.51000n     83.2102m  
  193.52000n     83.2095m  
  193.53000n     83.2088m  
  193.54000n     83.2082m  
  193.55000n     83.2075m  
  193.56000n     83.2069m  
  193.57000n     83.2062m  
  193.58000n     83.2055m  
  193.59000n     83.2049m  
  193.60000n     83.2042m  
  193.61000n     83.2036m  
  193.62000n     83.2030m  
  193.63000n     83.2037m  
  193.64000n     83.2043m  
  193.65000n     83.2050m  
  193.66000n     83.2057m  
  193.67000n     83.2064m  
  193.68000n     83.2070m  
  193.69000n     83.2077m  
  193.70000n     83.2084m  
  193.71000n     83.2090m  
  193.72000n     83.2097m  
  193.73000n     83.2104m  
  193.74000n     83.2110m  
  193.75000n     83.2117m  
  193.76000n     83.2124m  
  193.77000n     83.2131m  
  193.78000n     83.2137m  
  193.79000n     83.2144m  
  193.80000n     83.2151m  
  193.81000n     83.2157m  
  193.82000n     83.2164m  
  193.83000n     83.2171m  
  193.84000n     83.2178m  
  193.85000n     83.2184m  
  193.86000n     83.2191m  
  193.87000n     83.2198m  
  193.88000n     83.2204m  
  193.89000n     83.2211m  
  193.90000n     83.2218m  
  193.91000n     83.2225m  
  193.92000n     83.2231m  
  193.93000n     83.2238m  
  193.94000n     83.2245m  
  193.95000n     83.2251m  
  193.96000n     83.2258m  
  193.97000n     83.2265m  
  193.98000n     83.2271m  
  193.99000n     83.2278m  
  194.00000n     83.2285m  
  194.01000n     83.2292m  
  194.02000n     83.2298m  
  194.03000n     83.2305m  
  194.04000n     83.2312m  
  194.05000n     83.2318m  
  194.06000n     83.2325m  
  194.07000n     83.2332m  
  194.08000n     83.2339m  
  194.09000n     83.2345m  
  194.10000n     83.2352m  
  194.11000n     83.2359m  
  194.12000n     83.2365m  
  194.13000n     83.2372m  
  194.14000n     83.2379m  
  194.15000n     83.2386m  
  194.16000n     83.2392m  
  194.17000n     83.2399m  
  194.18000n     83.2406m  
  194.19000n     83.2412m  
  194.20000n     83.2419m  
  194.21000n     83.2426m  
  194.22000n     83.2433m  
  194.23000n     83.2439m  
  194.24000n     83.2446m  
  194.25000n     83.2453m  
  194.26000n     83.2459m  
  194.27000n     83.2466m  
  194.28000n     83.2473m  
  194.29000n     83.2479m  
  194.30000n     83.2486m  
  194.31000n     83.2493m  
  194.32000n     83.2500m  
  194.33000n     83.2506m  
  194.34000n     83.2513m  
  194.35000n     83.2520m  
  194.36000n     83.2526m  
  194.37000n     83.2533m  
  194.38000n     83.2540m  
  194.39000n     83.2547m  
  194.40000n     83.2553m  
  194.41000n     83.2560m  
  194.42000n     83.2567m  
  194.43000n     83.2573m  
  194.44000n     83.2580m  
  194.45000n     83.2587m  
  194.46000n     83.2594m  
  194.47000n     83.2600m  
  194.48000n     83.2607m  
  194.49000n     83.2614m  
  194.50000n     83.2620m  
  194.51000n     83.2627m  
  194.52000n     83.2634m  
  194.53000n     83.2640m  
  194.54000n     83.2647m  
  194.55000n     83.2654m  
  194.56000n     83.2661m  
  194.57000n     83.2667m  
  194.58000n     83.2674m  
  194.59000n     83.2681m  
  194.60000n     83.2687m  
  194.61000n     83.2694m  
  194.62000n     83.2701m  
  194.63000n     83.2708m  
  194.64000n     83.2714m  
  194.65000n     83.2721m  
  194.66000n     83.2728m  
  194.67000n     83.2734m  
  194.68000n     83.2741m  
  194.69000n     83.2748m  
  194.70000n     83.2755m  
  194.71000n     83.2761m  
  194.72000n     83.2768m  
  194.73000n     83.2775m  
  194.74000n     83.2781m  
  194.75000n     83.2788m  
  194.76000n     83.2795m  
  194.77000n     83.2802m  
  194.78000n     83.2808m  
  194.79000n     83.2815m  
  194.80000n     83.2822m  
  194.81000n     83.2828m  
  194.82000n     83.2835m  
  194.83000n     83.2842m  
  194.84000n     83.2848m  
  194.85000n     83.2855m  
  194.86000n     83.2862m  
  194.87000n     83.2869m  
  194.88000n     83.2875m  
  194.89000n     83.2882m  
  194.90000n     83.2889m  
  194.91000n     83.2895m  
  194.92000n     83.2902m  
  194.93000n     83.2909m  
  194.94000n     83.2916m  
  194.95000n     83.2922m  
  194.96000n     83.2929m  
  194.97000n     83.2936m  
  194.98000n     83.2942m  
  194.99000n     83.2949m  
  195.00000n     83.2956m  
  195.01000n   -987.0397u  
  195.02000n   -986.0440u  
  195.03000n   -989.1136u  
  195.04000n   -987.5293u  
  195.05000n   -985.9449u  
  195.06000n   -984.3605u  
  195.07000n   -986.6523u  
  195.08000n   -986.6580u  
  195.09000n   -986.6558u  
  195.10000n   -986.6535u  
  195.11000n   -986.6513u  
  195.12000n   -986.6514u  
  195.13000n   -986.6521u  
  195.14000n   -986.6529u  
  195.15000n   -986.6536u  
  195.16000n   -986.6543u  
  195.17000n   -986.6551u  
  195.18000n   -986.6558u  
  195.19000n   -986.6565u  
  195.20000n   -986.6573u  
  195.21000n   -986.6580u  
  195.22000n   -986.6587u  
  195.23000n   -986.6585u  
  195.24000n   -986.6580u  
  195.25000n   -986.6575u  
  195.26000n   -986.6570u  
  195.27000n   -986.6564u  
  195.28000n   -986.6559u  
  195.29000n   -986.6554u  
  195.30000n   -986.6549u  
  195.31000n   -986.6544u  
  195.32000n   -986.6539u  
  195.33000n   -986.6534u  
  195.34000n   -986.6529u  
  195.35000n   -986.6524u  
  195.36000n   -986.6519u  
  195.37000n   -986.6514u  
  195.38000n   -986.6508u  
  195.39000n   -986.6505u  
  195.40000n   -986.6509u  
  195.41000n   -986.6513u  
  195.42000n   -986.6517u  
  195.43000n   -986.6521u  
  195.44000n   -986.6525u  
  195.45000n   -986.6529u  
  195.46000n   -986.6533u  
  195.47000n   -986.6537u  
  195.48000n   -986.6540u  
  195.49000n   -986.6544u  
  195.50000n   -986.6548u  
  195.51000n   -986.6552u  
  195.52000n   -986.6556u  
  195.53000n   -986.6560u  
  195.54000n   -986.6564u  
  195.55000n   -986.6568u  
  195.56000n   -986.6572u  
  195.57000n   -986.6576u  
  195.58000n   -986.6580u  
  195.59000n   -986.6584u  
  195.60000n   -986.6587u  
  195.61000n     83.2749m  
  195.62000n     83.2325m  
  195.63000n     83.2215m  
  195.64000n     83.2534m  
  195.65000n     83.2852m  
  195.66000n     83.2863m  
  195.67000n     83.2724m  
  195.68000n     83.2584m  
  195.69000n     83.2444m  
  195.70000n     83.2305m  
  195.71000n     83.2165m  
  195.72000n     83.2030m  
  195.73000n     83.2091m  
  195.74000n     83.2152m  
  195.75000n     83.2213m  
  195.76000n     83.2274m  
  195.77000n     83.2335m  
  195.78000n     83.2396m  
  195.79000n     83.2457m  
  195.80000n     83.2518m  
  195.81000n     83.2579m  
  195.82000n     83.2640m  
  195.83000n     83.2701m  
  195.84000n     83.2762m  
  195.85000n     83.2823m  
  195.86000n     83.2884m  
  195.87000n     83.2945m  
  195.88000n     83.2914m  
  195.89000n     83.2863m  
  195.90000n     83.2812m  
  195.91000n     83.2760m  
  195.92000n     83.2709m  
  195.93000n     83.2658m  
  195.94000n     83.2607m  
  195.95000n     83.2555m  
  195.96000n     83.2504m  
  195.97000n     83.2453m  
  195.98000n     83.2401m  
  195.99000n     83.2350m  
  196.00000n     83.2299m  
  196.01000n     83.2248m  
  196.02000n     83.2196m  
  196.03000n     83.2145m  
  196.04000n     83.2094m  
  196.05000n     83.2042m  
  196.06000n     83.2058m  
  196.07000n     83.2097m  
  196.08000n     83.2136m  
  196.09000n     83.2175m  
  196.10000n     83.2213m  
  196.11000n     83.2252m  
  196.12000n     83.2291m  
  196.13000n     83.2330m  
  196.14000n     83.2369m  
  196.15000n     83.2407m  
  196.16000n     83.2446m  
  196.17000n     83.2485m  
  196.18000n     83.2524m  
  196.19000n     83.2563m  
  196.20000n     83.2601m  
  196.21000n     83.2640m  
  196.22000n     83.2679m  
  196.23000n     83.2718m  
  196.24000n     83.2757m  
  196.25000n     83.2795m  
  196.26000n     83.2834m  
  196.27000n     83.2873m  
  196.28000n     83.2912m  
  196.29000n     83.2951m  
  196.30000n     83.2931m  
  196.31000n     83.2903m  
  196.32000n     83.2874m  
  196.33000n     83.2846m  
  196.34000n     83.2818m  
  196.35000n     83.2789m  
  196.36000n     83.2761m  
  196.37000n     83.2732m  
  196.38000n     83.2704m  
  196.39000n     83.2675m  
  196.40000n     83.2647m  
  196.41000n     83.2619m  
  196.42000n     83.2590m  
  196.43000n     83.2562m  
  196.44000n     83.2533m  
  196.45000n     83.2505m  
  196.46000n     83.2476m  
  196.47000n     83.2448m  
  196.48000n     83.2419m  
  196.49000n     83.2391m  
  196.50000n     83.2363m  
  196.51000n     83.2334m  
  196.52000n     83.2306m  
  196.53000n     83.2277m  
  196.54000n     83.2249m  
  196.55000n     83.2220m  
  196.56000n     83.2192m  
  196.57000n     83.2163m  
  196.58000n     83.2135m  
  196.59000n     83.2107m  
  196.60000n     83.2078m  
  196.61000n     83.2050m  
  196.62000n     83.2034m  
  196.63000n     83.2049m  
  196.64000n     83.2065m  
  196.65000n     83.2080m  
  196.66000n     83.2096m  
  196.67000n     83.2111m  
  196.68000n     83.2127m  
  196.69000n     83.2142m  
  196.70000n     83.2158m  
  196.71000n     83.2173m  
  196.72000n     83.2189m  
  196.73000n     83.2204m  
  196.74000n     83.2220m  
  196.75000n     83.2235m  
  196.76000n     83.2251m  
  196.77000n     83.2266m  
  196.78000n     83.2281m  
  196.79000n     83.2297m  
  196.80000n     83.2312m  
  196.81000n     83.2328m  
  196.82000n     83.2343m  
  196.83000n     83.2359m  
  196.84000n     83.2374m  
  196.85000n     83.2390m  
  196.86000n     83.2405m  
  196.87000n     83.2421m  
  196.88000n     83.2436m  
  196.89000n     83.2452m  
  196.90000n     83.2467m  
  196.91000n     83.2483m  
  196.92000n     83.2498m  
  196.93000n     83.2514m  
  196.94000n     83.2529m  
  196.95000n     83.2545m  
  196.96000n     83.2560m  
  196.97000n     83.2576m  
  196.98000n     83.2591m  
  196.99000n     83.2606m  
  197.00000n     83.2622m  
  197.01000n     83.2637m  
  197.02000n     83.2653m  
  197.03000n     83.2668m  
  197.04000n     83.2684m  
  197.05000n     83.2699m  
  197.06000n     83.2715m  
  197.07000n     83.2730m  
  197.08000n     83.2746m  
  197.09000n     83.2761m  
  197.10000n     83.2777m  
  197.11000n     83.2792m  
  197.12000n     83.2808m  
  197.13000n     83.2823m  
  197.14000n     83.2839m  
  197.15000n     83.2854m  
  197.16000n     83.2870m  
  197.17000n     83.2885m  
  197.18000n     83.2901m  
  197.19000n     83.2916m  
  197.20000n     83.2931m  
  197.21000n     83.2947m  
  197.22000n     83.2953m  
  197.23000n     83.2946m  
  197.24000n     83.2940m  
  197.25000n     83.2933m  
  197.26000n     83.2927m  
  197.27000n     83.2920m  
  197.28000n     83.2913m  
  197.29000n     83.2907m  
  197.30000n     83.2900m  
  197.31000n     83.2894m  
  197.32000n     83.2887m  
  197.33000n     83.2880m  
  197.34000n     83.2874m  
  197.35000n     83.2867m  
  197.36000n     83.2861m  
  197.37000n     83.2854m  
  197.38000n     83.2847m  
  197.39000n     83.2841m  
  197.40000n     83.2834m  
  197.41000n     83.2828m  
  197.42000n     83.2821m  
  197.43000n     83.2814m  
  197.44000n     83.2808m  
  197.45000n     83.2801m  
  197.46000n     83.2795m  
  197.47000n     83.2788m  
  197.48000n     83.2781m  
  197.49000n     83.2775m  
  197.50000n     83.2768m  
  197.51000n     83.2762m  
  197.52000n     83.2755m  
  197.53000n     83.2748m  
  197.54000n     83.2742m  
  197.55000n     83.2735m  
  197.56000n     83.2729m  
  197.57000n     83.2722m  
  197.58000n     83.2715m  
  197.59000n     83.2709m  
  197.60000n     83.2702m  
  197.61000n     83.2696m  
  197.62000n     83.2689m  
  197.63000n     83.2682m  
  197.64000n     83.2676m  
  197.65000n     83.2669m  
  197.66000n     83.2663m  
  197.67000n     83.2656m  
  197.68000n     83.2649m  
  197.69000n     83.2643m  
  197.70000n     83.2636m  
  197.71000n     83.2630m  
  197.72000n     83.2623m  
  197.73000n     83.2616m  
  197.74000n     83.2610m  
  197.75000n     83.2603m  
  197.76000n     83.2597m  
  197.77000n     83.2590m  
  197.78000n     83.2583m  
  197.79000n     83.2577m  
  197.80000n     83.2570m  
  197.81000n     83.2564m  
  197.82000n     83.2557m  
  197.83000n     83.2550m  
  197.84000n     83.2544m  
  197.85000n     83.2537m  
  197.86000n     83.2531m  
  197.87000n     83.2524m  
  197.88000n     83.2517m  
  197.89000n     83.2511m  
  197.90000n     83.2504m  
  197.91000n     83.2498m  
  197.92000n     83.2491m  
  197.93000n     83.2484m  
  197.94000n     83.2478m  
  197.95000n     83.2471m  
  197.96000n     83.2465m  
  197.97000n     83.2458m  
  197.98000n     83.2451m  
  197.99000n     83.2445m  
  198.00000n     83.2438m  
  198.01000n     83.2432m  
  198.02000n     83.2425m  
  198.03000n     83.2418m  
  198.04000n     83.2412m  
  198.05000n     83.2405m  
  198.06000n     83.2399m  
  198.07000n     83.2392m  
  198.08000n     83.2385m  
  198.09000n     83.2379m  
  198.10000n     83.2372m  
  198.11000n     83.2366m  
  198.12000n     83.2359m  
  198.13000n     83.2352m  
  198.14000n     83.2346m  
  198.15000n     83.2339m  
  198.16000n     83.2333m  
  198.17000n     83.2326m  
  198.18000n     83.2319m  
  198.19000n     83.2313m  
  198.20000n     83.2306m  
  198.21000n     83.2300m  
  198.22000n     83.2293m  
  198.23000n     83.2286m  
  198.24000n     83.2280m  
  198.25000n     83.2273m  
  198.26000n     83.2267m  
  198.27000n     83.2260m  
  198.28000n     83.2253m  
  198.29000n     83.2247m  
  198.30000n     83.2240m  
  198.31000n     83.2234m  
  198.32000n     83.2227m  
  198.33000n     83.2220m  
  198.34000n     83.2214m  
  198.35000n     83.2207m  
  198.36000n     83.2201m  
  198.37000n     83.2194m  
  198.38000n     83.2187m  
  198.39000n     83.2181m  
  198.40000n     83.2174m  
  198.41000n     83.2168m  
  198.42000n     83.2161m  
  198.43000n     83.2154m  
  198.44000n     83.2148m  
  198.45000n     83.2141m  
  198.46000n     83.2135m  
  198.47000n     83.2128m  
  198.48000n     83.2121m  
  198.49000n     83.2115m  
  198.50000n     83.2108m  
  198.51000n     83.2102m  
  198.52000n     83.2095m  
  198.53000n     83.2088m  
  198.54000n     83.2082m  
  198.55000n     83.2075m  
  198.56000n     83.2069m  
  198.57000n     83.2062m  
  198.58000n     83.2055m  
  198.59000n     83.2049m  
  198.60000n     83.2042m  
  198.61000n     83.2036m  
  198.62000n     83.2030m  
  198.63000n     83.2037m  
  198.64000n     83.2043m  
  198.65000n     83.2050m  
  198.66000n     83.2057m  
  198.67000n     83.2064m  
  198.68000n     83.2070m  
  198.69000n     83.2077m  
  198.70000n     83.2084m  
  198.71000n     83.2090m  
  198.72000n     83.2097m  
  198.73000n     83.2104m  
  198.74000n     83.2110m  
  198.75000n     83.2117m  
  198.76000n     83.2124m  
  198.77000n     83.2131m  
  198.78000n     83.2137m  
  198.79000n     83.2144m  
  198.80000n     83.2151m  
  198.81000n     83.2157m  
  198.82000n     83.2164m  
  198.83000n     83.2171m  
  198.84000n     83.2178m  
  198.85000n     83.2184m  
  198.86000n     83.2191m  
  198.87000n     83.2198m  
  198.88000n     83.2204m  
  198.89000n     83.2211m  
  198.90000n     83.2218m  
  198.91000n     83.2225m  
  198.92000n     83.2231m  
  198.93000n     83.2238m  
  198.94000n     83.2245m  
  198.95000n     83.2251m  
  198.96000n     83.2258m  
  198.97000n     83.2265m  
  198.98000n     83.2271m  
  198.99000n     83.2278m  
  199.00000n     83.2285m  
  199.01000n     83.2292m  
  199.02000n     83.2298m  
  199.03000n     83.2305m  
  199.04000n     83.2312m  
  199.05000n     83.2318m  
  199.06000n     83.2325m  
  199.07000n     83.2332m  
  199.08000n     83.2339m  
  199.09000n     83.2345m  
  199.10000n     83.2352m  
  199.11000n     83.2359m  
  199.12000n     83.2365m  
  199.13000n     83.2372m  
  199.14000n     83.2379m  
  199.15000n     83.2386m  
  199.16000n     83.2392m  
  199.17000n     83.2399m  
  199.18000n     83.2406m  
  199.19000n     83.2412m  
  199.20000n     83.2419m  
  199.21000n     83.2426m  
  199.22000n     83.2433m  
  199.23000n     83.2439m  
  199.24000n     83.2446m  
  199.25000n     83.2453m  
  199.26000n     83.2459m  
  199.27000n     83.2466m  
  199.28000n     83.2473m  
  199.29000n     83.2479m  
  199.30000n     83.2486m  
  199.31000n     83.2493m  
  199.32000n     83.2500m  
  199.33000n     83.2506m  
  199.34000n     83.2513m  
  199.35000n     83.2520m  
  199.36000n     83.2526m  
  199.37000n     83.2533m  
  199.38000n     83.2540m  
  199.39000n     83.2547m  
  199.40000n     83.2553m  
  199.41000n     83.2560m  
  199.42000n     83.2567m  
  199.43000n     83.2573m  
  199.44000n     83.2580m  
  199.45000n     83.2587m  
  199.46000n     83.2594m  
  199.47000n     83.2600m  
  199.48000n     83.2607m  
  199.49000n     83.2614m  
  199.50000n     83.2620m  
  199.51000n     83.2627m  
  199.52000n     83.2634m  
  199.53000n     83.2640m  
  199.54000n     83.2647m  
  199.55000n     83.2654m  
  199.56000n     83.2661m  
  199.57000n     83.2667m  
  199.58000n     83.2674m  
  199.59000n     83.2681m  
  199.60000n     83.2687m  
  199.61000n     83.2694m  
  199.62000n     83.2701m  
  199.63000n     83.2708m  
  199.64000n     83.2714m  
  199.65000n     83.2721m  
  199.66000n     83.2728m  
  199.67000n     83.2734m  
  199.68000n     83.2741m  
  199.69000n     83.2748m  
  199.70000n     83.2755m  
  199.71000n     83.2761m  
  199.72000n     83.2768m  
  199.73000n     83.2775m  
  199.74000n     83.2781m  
  199.75000n     83.2788m  
  199.76000n     83.2795m  
  199.77000n     83.2802m  
  199.78000n     83.2808m  
  199.79000n     83.2815m  
  199.80000n     83.2822m  
  199.81000n     83.2828m  
  199.82000n     83.2835m  
  199.83000n     83.2842m  
  199.84000n     83.2848m  
  199.85000n     83.2855m  
  199.86000n     83.2862m  
  199.87000n     83.2869m  
  199.88000n     83.2875m  
  199.89000n     83.2882m  
  199.90000n     83.2889m  
  199.91000n     83.2895m  
  199.92000n     83.2902m  
  199.93000n     83.2909m  
  199.94000n     83.2916m  
  199.95000n     83.2922m  
  199.96000n     83.2929m  
  199.97000n     83.2936m  
  199.98000n     83.2942m  
  199.99000n     83.2949m  
  200.00000n     83.2956m  
y

          ***** job concluded
1****** HSPICE -- D-2010.03-SP1 32-BIT (May 26 2010) winnt ******               
 ******  
 * **************************************************

  ******  job statistics summary tnom=  25.000 temp=  25.000 *****

  ******  HSPICE Threads Information  ******

  Command Line Threads Count                  :     1
  Available CPU Count                         :     2
  Actual Model Evaluation(Load) Threads Count :     1
  Actual Solver Threads Count                 :     1


  ******  Circuit Statistics  ******
  # nodes       =     373 # elements   =     135
  # resistors   =       5 # capacitors =      36 # inductors   =       0
  # mutual_inds =       0 # vccs       =       0 # vcvs        =       0
  # cccs        =       0 # ccvs       =       0 # volt_srcs   =      15
  # curr_srcs   =       0 # diodes     =       0 # bjts        =       0
  # jfets       =       0 # mosfets    =      79 # U elements  =       0
  # T elements  =       0 # W elements =       0 # B elements  =       0
  # S elements  =       0 # P elements =       0 # va device   =       0


  ******  Runtime Statistics (seconds)  ******

  analysis           time    # points   tot. iter  conv.iter
  op point           0.36           1         259
  transient         33.90       20001      156658       22338 rev=      2836
  readin             0.08
  errchk             0.02
  setup              0.02
  output             0.07


           total memory used          790  kbytes
           total cpu time           34.48 seconds
           total elapsed time       34.53 seconds
           job started at     23:55:16 03/18/2009
           job ended   at     23:55:51 03/18/2009


  lic: Release hspice token(s) 
