
---------- Begin Simulation Statistics ----------
sim_seconds                                  0.001102                       # Number of seconds simulated
sim_ticks                                  1102246500                       # Number of ticks simulated
final_tick                               2255541889000                       # Number of ticks from beginning of simulation (restored from checkpoints and never reset)
sim_freq                                 1000000000000                       # Frequency of simulated ticks
host_inst_rate                               28021745                       # Simulator instruction rate (inst/s)
host_op_rate                                 28021678                       # Simulator op (including micro ops) rate (op/s)
host_tick_rate                              315225230                       # Simulator tick rate (ticks/s)
host_mem_usage                                 733388                       # Number of bytes of host memory used
host_seconds                                     3.50                       # Real time elapsed on the host
sim_insts                                    97983059                       # Number of instructions simulated
sim_ops                                      97983059                       # Number of ops (including micro ops) simulated
system.voltage_domain.voltage                       1                       # Voltage in Volts
system.clk_domain.clock                          1000                       # Clock period in ticks
system.mem_ctrls.bytes_read::switch_cpus.inst       337024                       # Number of bytes read from this memory
system.mem_ctrls.bytes_read::switch_cpus.data       919488                       # Number of bytes read from this memory
system.mem_ctrls.bytes_read::total            1256512                       # Number of bytes read from this memory
system.mem_ctrls.bytes_inst_read::switch_cpus.inst       337024                       # Number of instructions bytes read from this memory
system.mem_ctrls.bytes_inst_read::total        337024                       # Number of instructions bytes read from this memory
system.mem_ctrls.bytes_written::writebacks       582912                       # Number of bytes written to this memory
system.mem_ctrls.bytes_written::total          582912                       # Number of bytes written to this memory
system.mem_ctrls.num_reads::switch_cpus.inst         5266                       # Number of read requests responded to by this memory
system.mem_ctrls.num_reads::switch_cpus.data        14367                       # Number of read requests responded to by this memory
system.mem_ctrls.num_reads::total               19633                       # Number of read requests responded to by this memory
system.mem_ctrls.num_writes::writebacks          9108                       # Number of write requests responded to by this memory
system.mem_ctrls.num_writes::total               9108                       # Number of write requests responded to by this memory
system.mem_ctrls.bw_read::switch_cpus.inst    305761007                       # Total read bandwidth from this memory (bytes/s)
system.mem_ctrls.bw_read::switch_cpus.data    834194529                       # Total read bandwidth from this memory (bytes/s)
system.mem_ctrls.bw_read::total            1139955536                       # Total read bandwidth from this memory (bytes/s)
system.mem_ctrls.bw_inst_read::switch_cpus.inst    305761007                       # Instruction read bandwidth from this memory (bytes/s)
system.mem_ctrls.bw_inst_read::total        305761007                       # Instruction read bandwidth from this memory (bytes/s)
system.mem_ctrls.bw_write::writebacks       528839965                       # Write bandwidth from this memory (bytes/s)
system.mem_ctrls.bw_write::total            528839965                       # Write bandwidth from this memory (bytes/s)
system.mem_ctrls.bw_total::writebacks       528839965                       # Total bandwidth to/from this memory (bytes/s)
system.mem_ctrls.bw_total::switch_cpus.inst    305761007                       # Total bandwidth to/from this memory (bytes/s)
system.mem_ctrls.bw_total::switch_cpus.data    834194529                       # Total bandwidth to/from this memory (bytes/s)
system.mem_ctrls.bw_total::total           1668795501                       # Total bandwidth to/from this memory (bytes/s)
system.mem_ctrls.readReqs                       19633                       # Number of read requests accepted
system.mem_ctrls.writeReqs                       9108                       # Number of write requests accepted
system.mem_ctrls.readBursts                     19633                       # Number of DRAM read bursts, including those serviced by the write queue
system.mem_ctrls.writeBursts                     9108                       # Number of DRAM write bursts, including those merged in the write queue
system.mem_ctrls.bytesReadDRAM                1255552                       # Total number of bytes read from DRAM
system.mem_ctrls.bytesReadWrQ                     960                       # Total number of bytes read from write queue
system.mem_ctrls.bytesWritten                  580992                       # Total number of bytes written to DRAM
system.mem_ctrls.bytesReadSys                 1256512                       # Total read bytes from the system interface side
system.mem_ctrls.bytesWrittenSys               582912                       # Total written bytes from the system interface side
system.mem_ctrls.servicedByWrQ                     15                       # Number of DRAM read bursts serviced by the write queue
system.mem_ctrls.mergedWrBursts                     0                       # Number of DRAM write bursts merged with an existing one
system.mem_ctrls.neitherReadNorWriteReqs            0                       # Number of requests that are neither read nor write
system.mem_ctrls.perBankRdBursts::0              1314                       # Per bank write bursts
system.mem_ctrls.perBankRdBursts::1              1003                       # Per bank write bursts
system.mem_ctrls.perBankRdBursts::2              1390                       # Per bank write bursts
system.mem_ctrls.perBankRdBursts::3              1272                       # Per bank write bursts
system.mem_ctrls.perBankRdBursts::4              1269                       # Per bank write bursts
system.mem_ctrls.perBankRdBursts::5              1002                       # Per bank write bursts
system.mem_ctrls.perBankRdBursts::6              1388                       # Per bank write bursts
system.mem_ctrls.perBankRdBursts::7              1099                       # Per bank write bursts
system.mem_ctrls.perBankRdBursts::8              1180                       # Per bank write bursts
system.mem_ctrls.perBankRdBursts::9              1291                       # Per bank write bursts
system.mem_ctrls.perBankRdBursts::10             1178                       # Per bank write bursts
system.mem_ctrls.perBankRdBursts::11             1444                       # Per bank write bursts
system.mem_ctrls.perBankRdBursts::12             1047                       # Per bank write bursts
system.mem_ctrls.perBankRdBursts::13             1708                       # Per bank write bursts
system.mem_ctrls.perBankRdBursts::14             1132                       # Per bank write bursts
system.mem_ctrls.perBankRdBursts::15              901                       # Per bank write bursts
system.mem_ctrls.perBankWrBursts::0               540                       # Per bank write bursts
system.mem_ctrls.perBankWrBursts::1               570                       # Per bank write bursts
system.mem_ctrls.perBankWrBursts::2               876                       # Per bank write bursts
system.mem_ctrls.perBankWrBursts::3              1042                       # Per bank write bursts
system.mem_ctrls.perBankWrBursts::4               811                       # Per bank write bursts
system.mem_ctrls.perBankWrBursts::5               600                       # Per bank write bursts
system.mem_ctrls.perBankWrBursts::6               767                       # Per bank write bursts
system.mem_ctrls.perBankWrBursts::7               448                       # Per bank write bursts
system.mem_ctrls.perBankWrBursts::8               416                       # Per bank write bursts
system.mem_ctrls.perBankWrBursts::9               671                       # Per bank write bursts
system.mem_ctrls.perBankWrBursts::10              294                       # Per bank write bursts
system.mem_ctrls.perBankWrBursts::11              404                       # Per bank write bursts
system.mem_ctrls.perBankWrBursts::12              200                       # Per bank write bursts
system.mem_ctrls.perBankWrBursts::13              478                       # Per bank write bursts
system.mem_ctrls.perBankWrBursts::14              472                       # Per bank write bursts
system.mem_ctrls.perBankWrBursts::15              489                       # Per bank write bursts
system.mem_ctrls.numRdRetry                         0                       # Number of times read queue was full causing retry
system.mem_ctrls.numWrRetry                         0                       # Number of times write queue was full causing retry
system.mem_ctrls.totGap                    1102206500                       # Total gap between requests
system.mem_ctrls.readPktSize::0                     0                       # Read request sizes (log2)
system.mem_ctrls.readPktSize::1                     0                       # Read request sizes (log2)
system.mem_ctrls.readPktSize::2                     0                       # Read request sizes (log2)
system.mem_ctrls.readPktSize::3                     0                       # Read request sizes (log2)
system.mem_ctrls.readPktSize::4                     0                       # Read request sizes (log2)
system.mem_ctrls.readPktSize::5                     0                       # Read request sizes (log2)
system.mem_ctrls.readPktSize::6                 19633                       # Read request sizes (log2)
system.mem_ctrls.writePktSize::0                    0                       # Write request sizes (log2)
system.mem_ctrls.writePktSize::1                    0                       # Write request sizes (log2)
system.mem_ctrls.writePktSize::2                    0                       # Write request sizes (log2)
system.mem_ctrls.writePktSize::3                    0                       # Write request sizes (log2)
system.mem_ctrls.writePktSize::4                    0                       # Write request sizes (log2)
system.mem_ctrls.writePktSize::5                    0                       # Write request sizes (log2)
system.mem_ctrls.writePktSize::6                 9108                       # Write request sizes (log2)
system.mem_ctrls.rdQLenPdf::0                    9619                       # What read queue length does an incoming req see
system.mem_ctrls.rdQLenPdf::1                    5196                       # What read queue length does an incoming req see
system.mem_ctrls.rdQLenPdf::2                    3020                       # What read queue length does an incoming req see
system.mem_ctrls.rdQLenPdf::3                    1754                       # What read queue length does an incoming req see
system.mem_ctrls.rdQLenPdf::4                      27                       # What read queue length does an incoming req see
system.mem_ctrls.rdQLenPdf::5                       2                       # What read queue length does an incoming req see
system.mem_ctrls.rdQLenPdf::6                       0                       # What read queue length does an incoming req see
system.mem_ctrls.rdQLenPdf::7                       0                       # What read queue length does an incoming req see
system.mem_ctrls.rdQLenPdf::8                       0                       # What read queue length does an incoming req see
system.mem_ctrls.rdQLenPdf::9                       0                       # What read queue length does an incoming req see
system.mem_ctrls.rdQLenPdf::10                      0                       # What read queue length does an incoming req see
system.mem_ctrls.rdQLenPdf::11                      0                       # What read queue length does an incoming req see
system.mem_ctrls.rdQLenPdf::12                      0                       # What read queue length does an incoming req see
system.mem_ctrls.rdQLenPdf::13                      0                       # What read queue length does an incoming req see
system.mem_ctrls.rdQLenPdf::14                      0                       # What read queue length does an incoming req see
system.mem_ctrls.rdQLenPdf::15                      0                       # What read queue length does an incoming req see
system.mem_ctrls.rdQLenPdf::16                      0                       # What read queue length does an incoming req see
system.mem_ctrls.rdQLenPdf::17                      0                       # What read queue length does an incoming req see
system.mem_ctrls.rdQLenPdf::18                      0                       # What read queue length does an incoming req see
system.mem_ctrls.rdQLenPdf::19                      0                       # What read queue length does an incoming req see
system.mem_ctrls.rdQLenPdf::20                      0                       # What read queue length does an incoming req see
system.mem_ctrls.rdQLenPdf::21                      0                       # What read queue length does an incoming req see
system.mem_ctrls.rdQLenPdf::22                      0                       # What read queue length does an incoming req see
system.mem_ctrls.rdQLenPdf::23                      0                       # What read queue length does an incoming req see
system.mem_ctrls.rdQLenPdf::24                      0                       # What read queue length does an incoming req see
system.mem_ctrls.rdQLenPdf::25                      0                       # What read queue length does an incoming req see
system.mem_ctrls.rdQLenPdf::26                      0                       # What read queue length does an incoming req see
system.mem_ctrls.rdQLenPdf::27                      0                       # What read queue length does an incoming req see
system.mem_ctrls.rdQLenPdf::28                      0                       # What read queue length does an incoming req see
system.mem_ctrls.rdQLenPdf::29                      0                       # What read queue length does an incoming req see
system.mem_ctrls.rdQLenPdf::30                      0                       # What read queue length does an incoming req see
system.mem_ctrls.rdQLenPdf::31                      0                       # What read queue length does an incoming req see
system.mem_ctrls.wrQLenPdf::0                       1                       # What write queue length does an incoming req see
system.mem_ctrls.wrQLenPdf::1                       1                       # What write queue length does an incoming req see
system.mem_ctrls.wrQLenPdf::2                       1                       # What write queue length does an incoming req see
system.mem_ctrls.wrQLenPdf::3                       1                       # What write queue length does an incoming req see
system.mem_ctrls.wrQLenPdf::4                       1                       # What write queue length does an incoming req see
system.mem_ctrls.wrQLenPdf::5                       1                       # What write queue length does an incoming req see
system.mem_ctrls.wrQLenPdf::6                       1                       # What write queue length does an incoming req see
system.mem_ctrls.wrQLenPdf::7                       1                       # What write queue length does an incoming req see
system.mem_ctrls.wrQLenPdf::8                       1                       # What write queue length does an incoming req see
system.mem_ctrls.wrQLenPdf::9                       1                       # What write queue length does an incoming req see
system.mem_ctrls.wrQLenPdf::10                      1                       # What write queue length does an incoming req see
system.mem_ctrls.wrQLenPdf::11                      1                       # What write queue length does an incoming req see
system.mem_ctrls.wrQLenPdf::12                      1                       # What write queue length does an incoming req see
system.mem_ctrls.wrQLenPdf::13                      1                       # What write queue length does an incoming req see
system.mem_ctrls.wrQLenPdf::14                      1                       # What write queue length does an incoming req see
system.mem_ctrls.wrQLenPdf::15                     57                       # What write queue length does an incoming req see
system.mem_ctrls.wrQLenPdf::16                     61                       # What write queue length does an incoming req see
system.mem_ctrls.wrQLenPdf::17                    312                       # What write queue length does an incoming req see
system.mem_ctrls.wrQLenPdf::18                    465                       # What write queue length does an incoming req see
system.mem_ctrls.wrQLenPdf::19                    547                       # What write queue length does an incoming req see
system.mem_ctrls.wrQLenPdf::20                    571                       # What write queue length does an incoming req see
system.mem_ctrls.wrQLenPdf::21                    586                       # What write queue length does an incoming req see
system.mem_ctrls.wrQLenPdf::22                    591                       # What write queue length does an incoming req see
system.mem_ctrls.wrQLenPdf::23                    577                       # What write queue length does an incoming req see
system.mem_ctrls.wrQLenPdf::24                    590                       # What write queue length does an incoming req see
system.mem_ctrls.wrQLenPdf::25                    589                       # What write queue length does an incoming req see
system.mem_ctrls.wrQLenPdf::26                    635                       # What write queue length does an incoming req see
system.mem_ctrls.wrQLenPdf::27                    584                       # What write queue length does an incoming req see
system.mem_ctrls.wrQLenPdf::28                    607                       # What write queue length does an incoming req see
system.mem_ctrls.wrQLenPdf::29                    621                       # What write queue length does an incoming req see
system.mem_ctrls.wrQLenPdf::30                    573                       # What write queue length does an incoming req see
system.mem_ctrls.wrQLenPdf::31                    566                       # What write queue length does an incoming req see
system.mem_ctrls.wrQLenPdf::32                    559                       # What write queue length does an incoming req see
system.mem_ctrls.wrQLenPdf::33                      1                       # What write queue length does an incoming req see
system.mem_ctrls.wrQLenPdf::34                      1                       # What write queue length does an incoming req see
system.mem_ctrls.wrQLenPdf::35                      0                       # What write queue length does an incoming req see
system.mem_ctrls.wrQLenPdf::36                      0                       # What write queue length does an incoming req see
system.mem_ctrls.wrQLenPdf::37                      0                       # What write queue length does an incoming req see
system.mem_ctrls.wrQLenPdf::38                      0                       # What write queue length does an incoming req see
system.mem_ctrls.wrQLenPdf::39                      0                       # What write queue length does an incoming req see
system.mem_ctrls.wrQLenPdf::40                      0                       # What write queue length does an incoming req see
system.mem_ctrls.wrQLenPdf::41                      0                       # What write queue length does an incoming req see
system.mem_ctrls.wrQLenPdf::42                      0                       # What write queue length does an incoming req see
system.mem_ctrls.wrQLenPdf::43                      0                       # What write queue length does an incoming req see
system.mem_ctrls.wrQLenPdf::44                      0                       # What write queue length does an incoming req see
system.mem_ctrls.wrQLenPdf::45                      0                       # What write queue length does an incoming req see
system.mem_ctrls.wrQLenPdf::46                      0                       # What write queue length does an incoming req see
system.mem_ctrls.wrQLenPdf::47                      0                       # What write queue length does an incoming req see
system.mem_ctrls.wrQLenPdf::48                      0                       # What write queue length does an incoming req see
system.mem_ctrls.wrQLenPdf::49                      0                       # What write queue length does an incoming req see
system.mem_ctrls.wrQLenPdf::50                      0                       # What write queue length does an incoming req see
system.mem_ctrls.wrQLenPdf::51                      0                       # What write queue length does an incoming req see
system.mem_ctrls.wrQLenPdf::52                      0                       # What write queue length does an incoming req see
system.mem_ctrls.wrQLenPdf::53                      0                       # What write queue length does an incoming req see
system.mem_ctrls.wrQLenPdf::54                      0                       # What write queue length does an incoming req see
system.mem_ctrls.wrQLenPdf::55                      0                       # What write queue length does an incoming req see
system.mem_ctrls.wrQLenPdf::56                      0                       # What write queue length does an incoming req see
system.mem_ctrls.wrQLenPdf::57                      0                       # What write queue length does an incoming req see
system.mem_ctrls.wrQLenPdf::58                      0                       # What write queue length does an incoming req see
system.mem_ctrls.wrQLenPdf::59                      0                       # What write queue length does an incoming req see
system.mem_ctrls.wrQLenPdf::60                      0                       # What write queue length does an incoming req see
system.mem_ctrls.wrQLenPdf::61                      0                       # What write queue length does an incoming req see
system.mem_ctrls.wrQLenPdf::62                      0                       # What write queue length does an incoming req see
system.mem_ctrls.wrQLenPdf::63                      0                       # What write queue length does an incoming req see
system.mem_ctrls.bytesPerActivate::samples         6637                       # Bytes accessed per row activation
system.mem_ctrls.bytesPerActivate::mean    276.192256                       # Bytes accessed per row activation
system.mem_ctrls.bytesPerActivate::gmean   166.906036                       # Bytes accessed per row activation
system.mem_ctrls.bytesPerActivate::stdev   303.925460                       # Bytes accessed per row activation
system.mem_ctrls.bytesPerActivate::0-127         2572     38.75%     38.75% # Bytes accessed per row activation
system.mem_ctrls.bytesPerActivate::128-255         1745     26.29%     65.04% # Bytes accessed per row activation
system.mem_ctrls.bytesPerActivate::256-383          721     10.86%     75.91% # Bytes accessed per row activation
system.mem_ctrls.bytesPerActivate::384-511          379      5.71%     81.62% # Bytes accessed per row activation
system.mem_ctrls.bytesPerActivate::512-639          229      3.45%     85.07% # Bytes accessed per row activation
system.mem_ctrls.bytesPerActivate::640-767          151      2.28%     87.34% # Bytes accessed per row activation
system.mem_ctrls.bytesPerActivate::768-895          135      2.03%     89.38% # Bytes accessed per row activation
system.mem_ctrls.bytesPerActivate::896-1023           68      1.02%     90.40% # Bytes accessed per row activation
system.mem_ctrls.bytesPerActivate::1024-1151          637      9.60%    100.00% # Bytes accessed per row activation
system.mem_ctrls.bytesPerActivate::total         6637                       # Bytes accessed per row activation
system.mem_ctrls.rdPerTurnAround::samples          558                       # Reads before turning the bus around for writes
system.mem_ctrls.rdPerTurnAround::mean      35.121864                       # Reads before turning the bus around for writes
system.mem_ctrls.rdPerTurnAround::gmean     30.253499                       # Reads before turning the bus around for writes
system.mem_ctrls.rdPerTurnAround::stdev     23.236112                       # Reads before turning the bus around for writes
system.mem_ctrls.rdPerTurnAround::0-15             22      3.94%      3.94% # Reads before turning the bus around for writes
system.mem_ctrls.rdPerTurnAround::16-31           275     49.28%     53.23% # Reads before turning the bus around for writes
system.mem_ctrls.rdPerTurnAround::32-47           159     28.49%     81.72% # Reads before turning the bus around for writes
system.mem_ctrls.rdPerTurnAround::48-63            53      9.50%     91.22% # Reads before turning the bus around for writes
system.mem_ctrls.rdPerTurnAround::64-79            26      4.66%     95.88% # Reads before turning the bus around for writes
system.mem_ctrls.rdPerTurnAround::80-95             9      1.61%     97.49% # Reads before turning the bus around for writes
system.mem_ctrls.rdPerTurnAround::96-111            6      1.08%     98.57% # Reads before turning the bus around for writes
system.mem_ctrls.rdPerTurnAround::112-127            2      0.36%     98.92% # Reads before turning the bus around for writes
system.mem_ctrls.rdPerTurnAround::128-143            4      0.72%     99.64% # Reads before turning the bus around for writes
system.mem_ctrls.rdPerTurnAround::144-159            1      0.18%     99.82% # Reads before turning the bus around for writes
system.mem_ctrls.rdPerTurnAround::256-271            1      0.18%    100.00% # Reads before turning the bus around for writes
system.mem_ctrls.rdPerTurnAround::total           558                       # Reads before turning the bus around for writes
system.mem_ctrls.wrPerTurnAround::samples          558                       # Writes before turning the bus around for reads
system.mem_ctrls.wrPerTurnAround::mean      16.268817                       # Writes before turning the bus around for reads
system.mem_ctrls.wrPerTurnAround::gmean     16.251949                       # Writes before turning the bus around for reads
system.mem_ctrls.wrPerTurnAround::stdev      0.773991                       # Writes before turning the bus around for reads
system.mem_ctrls.wrPerTurnAround::16              491     87.99%     87.99% # Writes before turning the bus around for reads
system.mem_ctrls.wrPerTurnAround::17                7      1.25%     89.25% # Writes before turning the bus around for reads
system.mem_ctrls.wrPerTurnAround::18               43      7.71%     96.95% # Writes before turning the bus around for reads
system.mem_ctrls.wrPerTurnAround::19               11      1.97%     98.92% # Writes before turning the bus around for reads
system.mem_ctrls.wrPerTurnAround::20                6      1.08%    100.00% # Writes before turning the bus around for reads
system.mem_ctrls.wrPerTurnAround::total           558                       # Writes before turning the bus around for reads
system.mem_ctrls.totQLat                    329124500                       # Total ticks spent queuing
system.mem_ctrls.totMemAccLat               696962000                       # Total ticks spent from burst creation until serviced by the DRAM
system.mem_ctrls.totBusLat                   98090000                       # Total ticks spent in databus transfers
system.mem_ctrls.avgQLat                     16776.66                       # Average queueing delay per DRAM burst
system.mem_ctrls.avgBusLat                    5000.00                       # Average bus latency per DRAM burst
system.mem_ctrls.avgMemAccLat                35526.66                       # Average memory access latency per DRAM burst
system.mem_ctrls.avgRdBW                      1139.08                       # Average DRAM read bandwidth in MiByte/s
system.mem_ctrls.avgWrBW                       527.10                       # Average achieved write bandwidth in MiByte/s
system.mem_ctrls.avgRdBWSys                   1139.96                       # Average system read bandwidth in MiByte/s
system.mem_ctrls.avgWrBWSys                    528.84                       # Average system write bandwidth in MiByte/s
system.mem_ctrls.peakBW                      12800.00                       # Theoretical peak bandwidth in MiByte/s
system.mem_ctrls.busUtil                        13.02                       # Data bus utilization in percentage
system.mem_ctrls.busUtilRead                     8.90                       # Data bus utilization in percentage for reads
system.mem_ctrls.busUtilWrite                    4.12                       # Data bus utilization in percentage for writes
system.mem_ctrls.avgRdQLen                       1.81                       # Average read queue length when enqueuing
system.mem_ctrls.avgWrQLen                      25.59                       # Average write queue length when enqueuing
system.mem_ctrls.readRowHits                    15568                       # Number of row buffer hits during reads
system.mem_ctrls.writeRowHits                    6476                       # Number of row buffer hits during writes
system.mem_ctrls.readRowHitRate                 79.36                       # Row buffer hit rate for reads
system.mem_ctrls.writeRowHitRate                71.10                       # Row buffer hit rate for writes
system.mem_ctrls.avgGap                      38349.62                       # Average gap between requests
system.mem_ctrls.pageHitRate                    76.74                       # Row buffer hit rate, read and write combined
system.mem_ctrls_0.actEnergy                 25945920                       # Energy for activate commands per rank (pJ)
system.mem_ctrls_0.preEnergy                 14157000                       # Energy for precharge commands per rank (pJ)
system.mem_ctrls_0.readEnergy                75722400                       # Energy for read commands per rank (pJ)
system.mem_ctrls_0.writeEnergy               36443520                       # Energy for write commands per rank (pJ)
system.mem_ctrls_0.refreshEnergy             71706960                       # Energy for refresh commands per rank (pJ)
system.mem_ctrls_0.actBackEnergy            720614520                       # Energy for active background per rank (pJ)
system.mem_ctrls_0.preBackEnergy             26754750                       # Energy for precharge background per rank (pJ)
system.mem_ctrls_0.totalEnergy              971345070                       # Total energy per rank (pJ)
system.mem_ctrls_0.averagePower            884.551747                       # Core power per rank (mW)
system.mem_ctrls_0.memoryStateTime::IDLE     39772500                       # Time in different power states
system.mem_ctrls_0.memoryStateTime::REF      36660000                       # Time in different power states
system.mem_ctrls_0.memoryStateTime::PRE_PDN            0                       # Time in different power states
system.mem_ctrls_0.memoryStateTime::ACT    1021721250                       # Time in different power states
system.mem_ctrls_0.memoryStateTime::ACT_PDN            0                       # Time in different power states
system.mem_ctrls_1.actEnergy                 24040800                       # Energy for activate commands per rank (pJ)
system.mem_ctrls_1.preEnergy                 13117500                       # Energy for precharge commands per rank (pJ)
system.mem_ctrls_1.readEnergy                76775400                       # Energy for read commands per rank (pJ)
system.mem_ctrls_1.writeEnergy               22051440                       # Energy for write commands per rank (pJ)
system.mem_ctrls_1.refreshEnergy             71706960                       # Energy for refresh commands per rank (pJ)
system.mem_ctrls_1.actBackEnergy            703977930                       # Energy for active background per rank (pJ)
system.mem_ctrls_1.preBackEnergy             41348250                       # Energy for precharge background per rank (pJ)
system.mem_ctrls_1.totalEnergy              953018280                       # Total energy per rank (pJ)
system.mem_ctrls_1.averagePower            867.862524                       # Core power per rank (mW)
system.mem_ctrls_1.memoryStateTime::IDLE     64001750                       # Time in different power states
system.mem_ctrls_1.memoryStateTime::REF      36660000                       # Time in different power states
system.mem_ctrls_1.memoryStateTime::PRE_PDN            0                       # Time in different power states
system.mem_ctrls_1.memoryStateTime::ACT     997473250                       # Time in different power states
system.mem_ctrls_1.memoryStateTime::ACT_PDN            0                       # Time in different power states
system.cpu_voltage_domain.voltage                   1                       # Voltage in Volts
system.cpu_clk_domain.clock                       500                       # Clock period in ticks
system.cpu.dtb.fetch_hits                           0                       # ITB hits
system.cpu.dtb.fetch_misses                         0                       # ITB misses
system.cpu.dtb.fetch_acv                            0                       # ITB acv
system.cpu.dtb.fetch_accesses                       0                       # ITB accesses
system.cpu.dtb.read_hits                            0                       # DTB read hits
system.cpu.dtb.read_misses                          0                       # DTB read misses
system.cpu.dtb.read_acv                             0                       # DTB read access violations
system.cpu.dtb.read_accesses                        0                       # DTB read accesses
system.cpu.dtb.write_hits                           0                       # DTB write hits
system.cpu.dtb.write_misses                         0                       # DTB write misses
system.cpu.dtb.write_acv                            0                       # DTB write access violations
system.cpu.dtb.write_accesses                       0                       # DTB write accesses
system.cpu.dtb.data_hits                            0                       # DTB hits
system.cpu.dtb.data_misses                          0                       # DTB misses
system.cpu.dtb.data_acv                             0                       # DTB access violations
system.cpu.dtb.data_accesses                        0                       # DTB accesses
system.cpu.itb.fetch_hits                           0                       # ITB hits
system.cpu.itb.fetch_misses                         0                       # ITB misses
system.cpu.itb.fetch_acv                            0                       # ITB acv
system.cpu.itb.fetch_accesses                       0                       # ITB accesses
system.cpu.itb.read_hits                            0                       # DTB read hits
system.cpu.itb.read_misses                          0                       # DTB read misses
system.cpu.itb.read_acv                             0                       # DTB read access violations
system.cpu.itb.read_accesses                        0                       # DTB read accesses
system.cpu.itb.write_hits                           0                       # DTB write hits
system.cpu.itb.write_misses                         0                       # DTB write misses
system.cpu.itb.write_acv                            0                       # DTB write access violations
system.cpu.itb.write_accesses                       0                       # DTB write accesses
system.cpu.itb.data_hits                            0                       # DTB hits
system.cpu.itb.data_misses                          0                       # DTB misses
system.cpu.itb.data_acv                             0                       # DTB access violations
system.cpu.itb.data_accesses                        0                       # DTB accesses
system.cpu.numCycles                                0                       # number of cpu cycles simulated
system.cpu.numWorkItemsStarted                      0                       # number of work items this cpu started
system.cpu.numWorkItemsCompleted                    0                       # number of work items this cpu completed
system.cpu.committedInsts                           0                       # Number of instructions committed
system.cpu.committedOps                             0                       # Number of ops (including micro ops) committed
system.cpu.num_int_alu_accesses                     0                       # Number of integer alu accesses
system.cpu.num_fp_alu_accesses                      0                       # Number of float alu accesses
system.cpu.num_func_calls                           0                       # number of times a function call or return occured
system.cpu.num_conditional_control_insts            0                       # number of instructions that are conditional controls
system.cpu.num_int_insts                            0                       # number of integer instructions
system.cpu.num_fp_insts                             0                       # number of float instructions
system.cpu.num_int_register_reads                   0                       # number of times the integer registers were read
system.cpu.num_int_register_writes                  0                       # number of times the integer registers were written
system.cpu.num_fp_register_reads                    0                       # number of times the floating registers were read
system.cpu.num_fp_register_writes                   0                       # number of times the floating registers were written
system.cpu.num_mem_refs                             0                       # number of memory refs
system.cpu.num_load_insts                           0                       # Number of load instructions
system.cpu.num_store_insts                          0                       # Number of store instructions
system.cpu.num_idle_cycles                          0                       # Number of idle cycles
system.cpu.num_busy_cycles                          0                       # Number of busy cycles
system.cpu.not_idle_fraction                        1                       # Percentage of non-idle cycles
system.cpu.idle_fraction                            0                       # Percentage of idle cycles
system.cpu.op_class::No_OpClass                     0                       # Class of executed instruction
system.cpu.op_class::IntAlu                         0                       # Class of executed instruction
system.cpu.op_class::IntMult                        0                       # Class of executed instruction
system.cpu.op_class::IntDiv                         0                       # Class of executed instruction
system.cpu.op_class::FloatAdd                       0                       # Class of executed instruction
system.cpu.op_class::FloatCmp                       0                       # Class of executed instruction
system.cpu.op_class::FloatCvt                       0                       # Class of executed instruction
system.cpu.op_class::FloatMult                      0                       # Class of executed instruction
system.cpu.op_class::FloatDiv                       0                       # Class of executed instruction
system.cpu.op_class::FloatSqrt                      0                       # Class of executed instruction
system.cpu.op_class::SimdAdd                        0                       # Class of executed instruction
system.cpu.op_class::SimdAddAcc                     0                       # Class of executed instruction
system.cpu.op_class::SimdAlu                        0                       # Class of executed instruction
system.cpu.op_class::SimdCmp                        0                       # Class of executed instruction
system.cpu.op_class::SimdCvt                        0                       # Class of executed instruction
system.cpu.op_class::SimdMisc                       0                       # Class of executed instruction
system.cpu.op_class::SimdMult                       0                       # Class of executed instruction
system.cpu.op_class::SimdMultAcc                    0                       # Class of executed instruction
system.cpu.op_class::SimdShift                      0                       # Class of executed instruction
system.cpu.op_class::SimdShiftAcc                   0                       # Class of executed instruction
system.cpu.op_class::SimdSqrt                       0                       # Class of executed instruction
system.cpu.op_class::SimdFloatAdd                   0                       # Class of executed instruction
system.cpu.op_class::SimdFloatAlu                   0                       # Class of executed instruction
system.cpu.op_class::SimdFloatCmp                   0                       # Class of executed instruction
system.cpu.op_class::SimdFloatCvt                   0                       # Class of executed instruction
system.cpu.op_class::SimdFloatDiv                   0                       # Class of executed instruction
system.cpu.op_class::SimdFloatMisc                  0                       # Class of executed instruction
system.cpu.op_class::SimdFloatMult                  0                       # Class of executed instruction
system.cpu.op_class::SimdFloatMultAcc               0                       # Class of executed instruction
system.cpu.op_class::SimdFloatSqrt                  0                       # Class of executed instruction
system.cpu.op_class::MemRead                        0                       # Class of executed instruction
system.cpu.op_class::MemWrite                       0                       # Class of executed instruction
system.cpu.op_class::IprAccess                      0                       # Class of executed instruction
system.cpu.op_class::InstPrefetch                   0                       # Class of executed instruction
system.cpu.op_class::total                          0                       # Class of executed instruction
system.cpu.kern.inst.arm                            0                       # number of arm instructions executed
system.cpu.kern.inst.quiesce                        0                       # number of quiesce instructions executed
system.cpu.kern.inst.hwrei                       2781                       # number of hwrei instructions executed
system.cpu.kern.ipl_count::0                      635     49.15%     49.15% # number of times we switched to this ipl
system.cpu.kern.ipl_count::22                       1      0.08%     49.23% # number of times we switched to this ipl
system.cpu.kern.ipl_count::31                     656     50.77%    100.00% # number of times we switched to this ipl
system.cpu.kern.ipl_count::total                 1292                       # number of times we switched to this ipl
system.cpu.kern.ipl_good::0                       633     49.96%     49.96% # number of times we switched to this ipl from a different ipl
system.cpu.kern.ipl_good::22                        1      0.08%     50.04% # number of times we switched to this ipl from a different ipl
system.cpu.kern.ipl_good::31                      633     49.96%    100.00% # number of times we switched to this ipl from a different ipl
system.cpu.kern.ipl_good::total                  1267                       # number of times we switched to this ipl from a different ipl
system.cpu.kern.ipl_ticks::0               1003719500     91.17%     91.17% # number of cycles we spent at this ipl
system.cpu.kern.ipl_ticks::22                 1534000      0.14%     91.31% # number of cycles we spent at this ipl
system.cpu.kern.ipl_ticks::31                95642000      8.69%    100.00% # number of cycles we spent at this ipl
system.cpu.kern.ipl_ticks::total           1100895500                       # number of cycles we spent at this ipl
system.cpu.kern.ipl_used::0                  0.996850                       # fraction of swpipl calls that actually changed the ipl
system.cpu.kern.ipl_used::22                        1                       # fraction of swpipl calls that actually changed the ipl
system.cpu.kern.ipl_used::31                 0.964939                       # fraction of swpipl calls that actually changed the ipl
system.cpu.kern.ipl_used::total              0.980650                       # fraction of swpipl calls that actually changed the ipl
system.cpu.kern.syscall::2                          1      5.56%      5.56% # number of syscalls executed
system.cpu.kern.syscall::3                          2     11.11%     16.67% # number of syscalls executed
system.cpu.kern.syscall::6                          2     11.11%     27.78% # number of syscalls executed
system.cpu.kern.syscall::17                         1      5.56%     33.33% # number of syscalls executed
system.cpu.kern.syscall::19                         1      5.56%     38.89% # number of syscalls executed
system.cpu.kern.syscall::33                         1      5.56%     44.44% # number of syscalls executed
system.cpu.kern.syscall::45                         3     16.67%     61.11% # number of syscalls executed
system.cpu.kern.syscall::48                         1      5.56%     66.67% # number of syscalls executed
system.cpu.kern.syscall::59                         1      5.56%     72.22% # number of syscalls executed
system.cpu.kern.syscall::71                         4     22.22%     94.44% # number of syscalls executed
system.cpu.kern.syscall::74                         1      5.56%    100.00% # number of syscalls executed
system.cpu.kern.syscall::total                     18                       # number of syscalls executed
system.cpu.kern.callpal::swpctx                   118      8.10%      8.10% # number of callpals executed
system.cpu.kern.callpal::tbi                        6      0.41%      8.51% # number of callpals executed
system.cpu.kern.callpal::swpipl                  1107     75.98%     84.49% # number of callpals executed
system.cpu.kern.callpal::rdps                       3      0.21%     84.69% # number of callpals executed
system.cpu.kern.callpal::wrusp                      1      0.07%     84.76% # number of callpals executed
system.cpu.kern.callpal::rdusp                      1      0.07%     84.83% # number of callpals executed
system.cpu.kern.callpal::rti                      184     12.63%     97.46% # number of callpals executed
system.cpu.kern.callpal::callsys                   33      2.26%     99.73% # number of callpals executed
system.cpu.kern.callpal::imb                        4      0.27%    100.00% # number of callpals executed
system.cpu.kern.callpal::total                   1457                       # number of callpals executed
system.cpu.kern.mode_switch::kernel               302                       # number of protection mode switches
system.cpu.kern.mode_switch::user                 181                       # number of protection mode switches
system.cpu.kern.mode_switch::idle                   0                       # number of protection mode switches
system.cpu.kern.mode_good::kernel                 181                      
system.cpu.kern.mode_good::user                   181                      
system.cpu.kern.mode_good::idle                     0                      
system.cpu.kern.mode_switch_good::kernel     0.599338                       # fraction of useful protection mode switches
system.cpu.kern.mode_switch_good::user              1                       # fraction of useful protection mode switches
system.cpu.kern.mode_switch_good::idle            nan                       # fraction of useful protection mode switches
system.cpu.kern.mode_switch_good::total      0.749482                       # fraction of useful protection mode switches
system.cpu.kern.mode_ticks::kernel          779500000     70.81%     70.81% # number of ticks spent at the given mode
system.cpu.kern.mode_ticks::user            321388500     29.19%    100.00% # number of ticks spent at the given mode
system.cpu.kern.mode_ticks::idle                    0      0.00%    100.00% # number of ticks spent at the given mode
system.cpu.kern.swap_context                      118                       # number of times the context was actually changed
system.cpu.dcache.tags.replacements             22504                       # number of replacements
system.cpu.dcache.tags.tagsinuse                  256                       # Cycle average of tags in use
system.cpu.dcache.tags.total_refs              188038                       # Total number of references to valid blocks.
system.cpu.dcache.tags.sampled_refs             22504                       # Sample count of references to valid blocks.
system.cpu.dcache.tags.avg_refs              8.355759                       # Average number of references to valid blocks.
system.cpu.dcache.tags.warmup_cycle                 0                       # Cycle when the warmup percentage was hit.
system.cpu.dcache.tags.occ_blocks::cpu.data     7.071763                       # Average occupied blocks per requestor
system.cpu.dcache.tags.occ_blocks::switch_cpus.data   248.928237                       # Average occupied blocks per requestor
system.cpu.dcache.tags.occ_percent::cpu.data     0.027624                       # Average percentage of cache occupancy
system.cpu.dcache.tags.occ_percent::switch_cpus.data     0.972376                       # Average percentage of cache occupancy
system.cpu.dcache.tags.occ_percent::total            1                       # Average percentage of cache occupancy
system.cpu.dcache.tags.occ_task_id_blocks::1024          256                       # Occupied blocks per task id
system.cpu.dcache.tags.age_task_id_blocks_1024::0           84                       # Occupied blocks per task id
system.cpu.dcache.tags.age_task_id_blocks_1024::1          151                       # Occupied blocks per task id
system.cpu.dcache.tags.age_task_id_blocks_1024::2           21                       # Occupied blocks per task id
system.cpu.dcache.tags.occ_task_id_percent::1024            1                       # Percentage of cache occupancy per task id
system.cpu.dcache.tags.tag_accesses           1189672                       # Number of tag accesses
system.cpu.dcache.tags.data_accesses          1189672                       # Number of data accesses
system.cpu.dcache.ReadReq_hits::switch_cpus.data       127094                       # number of ReadReq hits
system.cpu.dcache.ReadReq_hits::total          127094                       # number of ReadReq hits
system.cpu.dcache.WriteReq_hits::switch_cpus.data        57155                       # number of WriteReq hits
system.cpu.dcache.WriteReq_hits::total          57155                       # number of WriteReq hits
system.cpu.dcache.LoadLockedReq_hits::switch_cpus.data         2041                       # number of LoadLockedReq hits
system.cpu.dcache.LoadLockedReq_hits::total         2041                       # number of LoadLockedReq hits
system.cpu.dcache.StoreCondReq_hits::switch_cpus.data         2378                       # number of StoreCondReq hits
system.cpu.dcache.StoreCondReq_hits::total         2378                       # number of StoreCondReq hits
system.cpu.dcache.demand_hits::switch_cpus.data       184249                       # number of demand (read+write) hits
system.cpu.dcache.demand_hits::total           184249                       # number of demand (read+write) hits
system.cpu.dcache.overall_hits::switch_cpus.data       184249                       # number of overall hits
system.cpu.dcache.overall_hits::total          184249                       # number of overall hits
system.cpu.dcache.ReadReq_misses::switch_cpus.data        33455                       # number of ReadReq misses
system.cpu.dcache.ReadReq_misses::total         33455                       # number of ReadReq misses
system.cpu.dcache.WriteReq_misses::switch_cpus.data        69089                       # number of WriteReq misses
system.cpu.dcache.WriteReq_misses::total        69089                       # number of WriteReq misses
system.cpu.dcache.LoadLockedReq_misses::switch_cpus.data          580                       # number of LoadLockedReq misses
system.cpu.dcache.LoadLockedReq_misses::total          580                       # number of LoadLockedReq misses
system.cpu.dcache.demand_misses::switch_cpus.data       102544                       # number of demand (read+write) misses
system.cpu.dcache.demand_misses::total         102544                       # number of demand (read+write) misses
system.cpu.dcache.overall_misses::switch_cpus.data       102544                       # number of overall misses
system.cpu.dcache.overall_misses::total        102544                       # number of overall misses
system.cpu.dcache.ReadReq_miss_latency::switch_cpus.data   1660728997                       # number of ReadReq miss cycles
system.cpu.dcache.ReadReq_miss_latency::total   1660728997                       # number of ReadReq miss cycles
system.cpu.dcache.WriteReq_miss_latency::switch_cpus.data   4797915869                       # number of WriteReq miss cycles
system.cpu.dcache.WriteReq_miss_latency::total   4797915869                       # number of WriteReq miss cycles
system.cpu.dcache.LoadLockedReq_miss_latency::switch_cpus.data     26231500                       # number of LoadLockedReq miss cycles
system.cpu.dcache.LoadLockedReq_miss_latency::total     26231500                       # number of LoadLockedReq miss cycles
system.cpu.dcache.demand_miss_latency::switch_cpus.data   6458644866                       # number of demand (read+write) miss cycles
system.cpu.dcache.demand_miss_latency::total   6458644866                       # number of demand (read+write) miss cycles
system.cpu.dcache.overall_miss_latency::switch_cpus.data   6458644866                       # number of overall miss cycles
system.cpu.dcache.overall_miss_latency::total   6458644866                       # number of overall miss cycles
system.cpu.dcache.ReadReq_accesses::switch_cpus.data       160549                       # number of ReadReq accesses(hits+misses)
system.cpu.dcache.ReadReq_accesses::total       160549                       # number of ReadReq accesses(hits+misses)
system.cpu.dcache.WriteReq_accesses::switch_cpus.data       126244                       # number of WriteReq accesses(hits+misses)
system.cpu.dcache.WriteReq_accesses::total       126244                       # number of WriteReq accesses(hits+misses)
system.cpu.dcache.LoadLockedReq_accesses::switch_cpus.data         2621                       # number of LoadLockedReq accesses(hits+misses)
system.cpu.dcache.LoadLockedReq_accesses::total         2621                       # number of LoadLockedReq accesses(hits+misses)
system.cpu.dcache.StoreCondReq_accesses::switch_cpus.data         2378                       # number of StoreCondReq accesses(hits+misses)
system.cpu.dcache.StoreCondReq_accesses::total         2378                       # number of StoreCondReq accesses(hits+misses)
system.cpu.dcache.demand_accesses::switch_cpus.data       286793                       # number of demand (read+write) accesses
system.cpu.dcache.demand_accesses::total       286793                       # number of demand (read+write) accesses
system.cpu.dcache.overall_accesses::switch_cpus.data       286793                       # number of overall (read+write) accesses
system.cpu.dcache.overall_accesses::total       286793                       # number of overall (read+write) accesses
system.cpu.dcache.ReadReq_miss_rate::switch_cpus.data     0.208379                       # miss rate for ReadReq accesses
system.cpu.dcache.ReadReq_miss_rate::total     0.208379                       # miss rate for ReadReq accesses
system.cpu.dcache.WriteReq_miss_rate::switch_cpus.data     0.547266                       # miss rate for WriteReq accesses
system.cpu.dcache.WriteReq_miss_rate::total     0.547266                       # miss rate for WriteReq accesses
system.cpu.dcache.LoadLockedReq_miss_rate::switch_cpus.data     0.221290                       # miss rate for LoadLockedReq accesses
system.cpu.dcache.LoadLockedReq_miss_rate::total     0.221290                       # miss rate for LoadLockedReq accesses
system.cpu.dcache.demand_miss_rate::switch_cpus.data     0.357554                       # miss rate for demand accesses
system.cpu.dcache.demand_miss_rate::total     0.357554                       # miss rate for demand accesses
system.cpu.dcache.overall_miss_rate::switch_cpus.data     0.357554                       # miss rate for overall accesses
system.cpu.dcache.overall_miss_rate::total     0.357554                       # miss rate for overall accesses
system.cpu.dcache.ReadReq_avg_miss_latency::switch_cpus.data 49640.681423                       # average ReadReq miss latency
system.cpu.dcache.ReadReq_avg_miss_latency::total 49640.681423                       # average ReadReq miss latency
system.cpu.dcache.WriteReq_avg_miss_latency::switch_cpus.data 69445.438044                       # average WriteReq miss latency
system.cpu.dcache.WriteReq_avg_miss_latency::total 69445.438044                       # average WriteReq miss latency
system.cpu.dcache.LoadLockedReq_avg_miss_latency::switch_cpus.data 45226.724138                       # average LoadLockedReq miss latency
system.cpu.dcache.LoadLockedReq_avg_miss_latency::total 45226.724138                       # average LoadLockedReq miss latency
system.cpu.dcache.demand_avg_miss_latency::switch_cpus.data 62984.132333                       # average overall miss latency
system.cpu.dcache.demand_avg_miss_latency::total 62984.132333                       # average overall miss latency
system.cpu.dcache.overall_avg_miss_latency::switch_cpus.data 62984.132333                       # average overall miss latency
system.cpu.dcache.overall_avg_miss_latency::total 62984.132333                       # average overall miss latency
system.cpu.dcache.blocked_cycles::no_mshrs       397458                       # number of cycles access was blocked
system.cpu.dcache.blocked_cycles::no_targets            0                       # number of cycles access was blocked
system.cpu.dcache.blocked::no_mshrs              7823                       # number of cycles access was blocked
system.cpu.dcache.blocked::no_targets               0                       # number of cycles access was blocked
system.cpu.dcache.avg_blocked_cycles::no_mshrs    50.806340                       # average number of cycles each access was blocked
system.cpu.dcache.avg_blocked_cycles::no_targets          nan                       # average number of cycles each access was blocked
system.cpu.dcache.fast_writes                       0                       # number of fast writes performed
system.cpu.dcache.cache_copies                      0                       # number of cache copies performed
system.cpu.dcache.writebacks::writebacks        13870                       # number of writebacks
system.cpu.dcache.writebacks::total             13870                       # number of writebacks
system.cpu.dcache.ReadReq_mshr_hits::switch_cpus.data        20860                       # number of ReadReq MSHR hits
system.cpu.dcache.ReadReq_mshr_hits::total        20860                       # number of ReadReq MSHR hits
system.cpu.dcache.WriteReq_mshr_hits::switch_cpus.data        59561                       # number of WriteReq MSHR hits
system.cpu.dcache.WriteReq_mshr_hits::total        59561                       # number of WriteReq MSHR hits
system.cpu.dcache.LoadLockedReq_mshr_hits::switch_cpus.data          197                       # number of LoadLockedReq MSHR hits
system.cpu.dcache.LoadLockedReq_mshr_hits::total          197                       # number of LoadLockedReq MSHR hits
system.cpu.dcache.demand_mshr_hits::switch_cpus.data        80421                       # number of demand (read+write) MSHR hits
system.cpu.dcache.demand_mshr_hits::total        80421                       # number of demand (read+write) MSHR hits
system.cpu.dcache.overall_mshr_hits::switch_cpus.data        80421                       # number of overall MSHR hits
system.cpu.dcache.overall_mshr_hits::total        80421                       # number of overall MSHR hits
system.cpu.dcache.ReadReq_mshr_misses::switch_cpus.data        12595                       # number of ReadReq MSHR misses
system.cpu.dcache.ReadReq_mshr_misses::total        12595                       # number of ReadReq MSHR misses
system.cpu.dcache.WriteReq_mshr_misses::switch_cpus.data         9528                       # number of WriteReq MSHR misses
system.cpu.dcache.WriteReq_mshr_misses::total         9528                       # number of WriteReq MSHR misses
system.cpu.dcache.LoadLockedReq_mshr_misses::switch_cpus.data          383                       # number of LoadLockedReq MSHR misses
system.cpu.dcache.LoadLockedReq_mshr_misses::total          383                       # number of LoadLockedReq MSHR misses
system.cpu.dcache.demand_mshr_misses::switch_cpus.data        22123                       # number of demand (read+write) MSHR misses
system.cpu.dcache.demand_mshr_misses::total        22123                       # number of demand (read+write) MSHR misses
system.cpu.dcache.overall_mshr_misses::switch_cpus.data        22123                       # number of overall MSHR misses
system.cpu.dcache.overall_mshr_misses::total        22123                       # number of overall MSHR misses
system.cpu.dcache.WriteReq_mshr_uncacheable::switch_cpus.data            1                       # number of WriteReq MSHR uncacheable
system.cpu.dcache.WriteReq_mshr_uncacheable::total            1                       # number of WriteReq MSHR uncacheable
system.cpu.dcache.overall_mshr_uncacheable_misses::switch_cpus.data            1                       # number of overall MSHR uncacheable misses
system.cpu.dcache.overall_mshr_uncacheable_misses::total            1                       # number of overall MSHR uncacheable misses
system.cpu.dcache.ReadReq_mshr_miss_latency::switch_cpus.data    596548003                       # number of ReadReq MSHR miss cycles
system.cpu.dcache.ReadReq_mshr_miss_latency::total    596548003                       # number of ReadReq MSHR miss cycles
system.cpu.dcache.WriteReq_mshr_miss_latency::switch_cpus.data    747653717                       # number of WriteReq MSHR miss cycles
system.cpu.dcache.WriteReq_mshr_miss_latency::total    747653717                       # number of WriteReq MSHR miss cycles
system.cpu.dcache.LoadLockedReq_mshr_miss_latency::switch_cpus.data     14298250                       # number of LoadLockedReq MSHR miss cycles
system.cpu.dcache.LoadLockedReq_mshr_miss_latency::total     14298250                       # number of LoadLockedReq MSHR miss cycles
system.cpu.dcache.demand_mshr_miss_latency::switch_cpus.data   1344201720                       # number of demand (read+write) MSHR miss cycles
system.cpu.dcache.demand_mshr_miss_latency::total   1344201720                       # number of demand (read+write) MSHR miss cycles
system.cpu.dcache.overall_mshr_miss_latency::switch_cpus.data   1344201720                       # number of overall MSHR miss cycles
system.cpu.dcache.overall_mshr_miss_latency::total   1344201720                       # number of overall MSHR miss cycles
system.cpu.dcache.WriteReq_mshr_uncacheable_latency::switch_cpus.data       223500                       # number of WriteReq MSHR uncacheable cycles
system.cpu.dcache.WriteReq_mshr_uncacheable_latency::total       223500                       # number of WriteReq MSHR uncacheable cycles
system.cpu.dcache.overall_mshr_uncacheable_latency::switch_cpus.data       223500                       # number of overall MSHR uncacheable cycles
system.cpu.dcache.overall_mshr_uncacheable_latency::total       223500                       # number of overall MSHR uncacheable cycles
system.cpu.dcache.ReadReq_mshr_miss_rate::switch_cpus.data     0.078450                       # mshr miss rate for ReadReq accesses
system.cpu.dcache.ReadReq_mshr_miss_rate::total     0.078450                       # mshr miss rate for ReadReq accesses
system.cpu.dcache.WriteReq_mshr_miss_rate::switch_cpus.data     0.075473                       # mshr miss rate for WriteReq accesses
system.cpu.dcache.WriteReq_mshr_miss_rate::total     0.075473                       # mshr miss rate for WriteReq accesses
system.cpu.dcache.LoadLockedReq_mshr_miss_rate::switch_cpus.data     0.146127                       # mshr miss rate for LoadLockedReq accesses
system.cpu.dcache.LoadLockedReq_mshr_miss_rate::total     0.146127                       # mshr miss rate for LoadLockedReq accesses
system.cpu.dcache.demand_mshr_miss_rate::switch_cpus.data     0.077139                       # mshr miss rate for demand accesses
system.cpu.dcache.demand_mshr_miss_rate::total     0.077139                       # mshr miss rate for demand accesses
system.cpu.dcache.overall_mshr_miss_rate::switch_cpus.data     0.077139                       # mshr miss rate for overall accesses
system.cpu.dcache.overall_mshr_miss_rate::total     0.077139                       # mshr miss rate for overall accesses
system.cpu.dcache.ReadReq_avg_mshr_miss_latency::switch_cpus.data 47363.874792                       # average ReadReq mshr miss latency
system.cpu.dcache.ReadReq_avg_mshr_miss_latency::total 47363.874792                       # average ReadReq mshr miss latency
system.cpu.dcache.WriteReq_avg_mshr_miss_latency::switch_cpus.data 78469.113875                       # average WriteReq mshr miss latency
system.cpu.dcache.WriteReq_avg_mshr_miss_latency::total 78469.113875                       # average WriteReq mshr miss latency
system.cpu.dcache.LoadLockedReq_avg_mshr_miss_latency::switch_cpus.data 37332.245431                       # average LoadLockedReq mshr miss latency
system.cpu.dcache.LoadLockedReq_avg_mshr_miss_latency::total 37332.245431                       # average LoadLockedReq mshr miss latency
system.cpu.dcache.demand_avg_mshr_miss_latency::switch_cpus.data 60760.372463                       # average overall mshr miss latency
system.cpu.dcache.demand_avg_mshr_miss_latency::total 60760.372463                       # average overall mshr miss latency
system.cpu.dcache.overall_avg_mshr_miss_latency::switch_cpus.data 60760.372463                       # average overall mshr miss latency
system.cpu.dcache.overall_avg_mshr_miss_latency::total 60760.372463                       # average overall mshr miss latency
system.cpu.dcache.WriteReq_avg_mshr_uncacheable_latency::switch_cpus.data       223500                       # average WriteReq mshr uncacheable latency
system.cpu.dcache.WriteReq_avg_mshr_uncacheable_latency::total       223500                       # average WriteReq mshr uncacheable latency
system.cpu.dcache.overall_avg_mshr_uncacheable_latency::switch_cpus.data       223500                       # average overall mshr uncacheable latency
system.cpu.dcache.overall_avg_mshr_uncacheable_latency::total       223500                       # average overall mshr uncacheable latency
system.cpu.dcache.no_allocate_misses                0                       # Number of misses that were no-allocate
system.cpu.icache.tags.replacements             12280                       # number of replacements
system.cpu.icache.tags.tagsinuse           255.998797                       # Cycle average of tags in use
system.cpu.icache.tags.total_refs              254416                       # Total number of references to valid blocks.
system.cpu.icache.tags.sampled_refs             12280                       # Sample count of references to valid blocks.
system.cpu.icache.tags.avg_refs             20.717915                       # Average number of references to valid blocks.
system.cpu.icache.tags.warmup_cycle                 0                       # Cycle when the warmup percentage was hit.
system.cpu.icache.tags.occ_blocks::cpu.inst     4.973047                       # Average occupied blocks per requestor
system.cpu.icache.tags.occ_blocks::switch_cpus.inst   251.025749                       # Average occupied blocks per requestor
system.cpu.icache.tags.occ_percent::cpu.inst     0.019426                       # Average percentage of cache occupancy
system.cpu.icache.tags.occ_percent::switch_cpus.inst     0.980569                       # Average percentage of cache occupancy
system.cpu.icache.tags.occ_percent::total     0.999995                       # Average percentage of cache occupancy
system.cpu.icache.tags.occ_task_id_blocks::1024          256                       # Occupied blocks per task id
system.cpu.icache.tags.age_task_id_blocks_1024::0           98                       # Occupied blocks per task id
system.cpu.icache.tags.age_task_id_blocks_1024::1           27                       # Occupied blocks per task id
system.cpu.icache.tags.age_task_id_blocks_1024::2          131                       # Occupied blocks per task id
system.cpu.icache.tags.occ_task_id_percent::1024            1                       # Percentage of cache occupancy per task id
system.cpu.icache.tags.tag_accesses            671802                       # Number of tag accesses
system.cpu.icache.tags.data_accesses           671802                       # Number of data accesses
system.cpu.icache.ReadReq_hits::switch_cpus.inst       150630                       # number of ReadReq hits
system.cpu.icache.ReadReq_hits::total          150630                       # number of ReadReq hits
system.cpu.icache.demand_hits::switch_cpus.inst       150630                       # number of demand (read+write) hits
system.cpu.icache.demand_hits::total           150630                       # number of demand (read+write) hits
system.cpu.icache.overall_hits::switch_cpus.inst       150630                       # number of overall hits
system.cpu.icache.overall_hits::total          150630                       # number of overall hits
system.cpu.icache.ReadReq_misses::switch_cpus.inst        14250                       # number of ReadReq misses
system.cpu.icache.ReadReq_misses::total         14250                       # number of ReadReq misses
system.cpu.icache.demand_misses::switch_cpus.inst        14250                       # number of demand (read+write) misses
system.cpu.icache.demand_misses::total          14250                       # number of demand (read+write) misses
system.cpu.icache.overall_misses::switch_cpus.inst        14250                       # number of overall misses
system.cpu.icache.overall_misses::total         14250                       # number of overall misses
system.cpu.icache.ReadReq_miss_latency::switch_cpus.inst    644605215                       # number of ReadReq miss cycles
system.cpu.icache.ReadReq_miss_latency::total    644605215                       # number of ReadReq miss cycles
system.cpu.icache.demand_miss_latency::switch_cpus.inst    644605215                       # number of demand (read+write) miss cycles
system.cpu.icache.demand_miss_latency::total    644605215                       # number of demand (read+write) miss cycles
system.cpu.icache.overall_miss_latency::switch_cpus.inst    644605215                       # number of overall miss cycles
system.cpu.icache.overall_miss_latency::total    644605215                       # number of overall miss cycles
system.cpu.icache.ReadReq_accesses::switch_cpus.inst       164880                       # number of ReadReq accesses(hits+misses)
system.cpu.icache.ReadReq_accesses::total       164880                       # number of ReadReq accesses(hits+misses)
system.cpu.icache.demand_accesses::switch_cpus.inst       164880                       # number of demand (read+write) accesses
system.cpu.icache.demand_accesses::total       164880                       # number of demand (read+write) accesses
system.cpu.icache.overall_accesses::switch_cpus.inst       164880                       # number of overall (read+write) accesses
system.cpu.icache.overall_accesses::total       164880                       # number of overall (read+write) accesses
system.cpu.icache.ReadReq_miss_rate::switch_cpus.inst     0.086426                       # miss rate for ReadReq accesses
system.cpu.icache.ReadReq_miss_rate::total     0.086426                       # miss rate for ReadReq accesses
system.cpu.icache.demand_miss_rate::switch_cpus.inst     0.086426                       # miss rate for demand accesses
system.cpu.icache.demand_miss_rate::total     0.086426                       # miss rate for demand accesses
system.cpu.icache.overall_miss_rate::switch_cpus.inst     0.086426                       # miss rate for overall accesses
system.cpu.icache.overall_miss_rate::total     0.086426                       # miss rate for overall accesses
system.cpu.icache.ReadReq_avg_miss_latency::switch_cpus.inst 45235.453684                       # average ReadReq miss latency
system.cpu.icache.ReadReq_avg_miss_latency::total 45235.453684                       # average ReadReq miss latency
system.cpu.icache.demand_avg_miss_latency::switch_cpus.inst 45235.453684                       # average overall miss latency
system.cpu.icache.demand_avg_miss_latency::total 45235.453684                       # average overall miss latency
system.cpu.icache.overall_avg_miss_latency::switch_cpus.inst 45235.453684                       # average overall miss latency
system.cpu.icache.overall_avg_miss_latency::total 45235.453684                       # average overall miss latency
system.cpu.icache.blocked_cycles::no_mshrs         2145                       # number of cycles access was blocked
system.cpu.icache.blocked_cycles::no_targets            0                       # number of cycles access was blocked
system.cpu.icache.blocked::no_mshrs                51                       # number of cycles access was blocked
system.cpu.icache.blocked::no_targets               0                       # number of cycles access was blocked
system.cpu.icache.avg_blocked_cycles::no_mshrs    42.058824                       # average number of cycles each access was blocked
system.cpu.icache.avg_blocked_cycles::no_targets          nan                       # average number of cycles each access was blocked
system.cpu.icache.fast_writes                       0                       # number of fast writes performed
system.cpu.icache.cache_copies                      0                       # number of cache copies performed
system.cpu.icache.ReadReq_mshr_hits::switch_cpus.inst         1968                       # number of ReadReq MSHR hits
system.cpu.icache.ReadReq_mshr_hits::total         1968                       # number of ReadReq MSHR hits
system.cpu.icache.demand_mshr_hits::switch_cpus.inst         1968                       # number of demand (read+write) MSHR hits
system.cpu.icache.demand_mshr_hits::total         1968                       # number of demand (read+write) MSHR hits
system.cpu.icache.overall_mshr_hits::switch_cpus.inst         1968                       # number of overall MSHR hits
system.cpu.icache.overall_mshr_hits::total         1968                       # number of overall MSHR hits
system.cpu.icache.ReadReq_mshr_misses::switch_cpus.inst        12282                       # number of ReadReq MSHR misses
system.cpu.icache.ReadReq_mshr_misses::total        12282                       # number of ReadReq MSHR misses
system.cpu.icache.demand_mshr_misses::switch_cpus.inst        12282                       # number of demand (read+write) MSHR misses
system.cpu.icache.demand_mshr_misses::total        12282                       # number of demand (read+write) MSHR misses
system.cpu.icache.overall_mshr_misses::switch_cpus.inst        12282                       # number of overall MSHR misses
system.cpu.icache.overall_mshr_misses::total        12282                       # number of overall MSHR misses
system.cpu.icache.ReadReq_mshr_miss_latency::switch_cpus.inst    527085025                       # number of ReadReq MSHR miss cycles
system.cpu.icache.ReadReq_mshr_miss_latency::total    527085025                       # number of ReadReq MSHR miss cycles
system.cpu.icache.demand_mshr_miss_latency::switch_cpus.inst    527085025                       # number of demand (read+write) MSHR miss cycles
system.cpu.icache.demand_mshr_miss_latency::total    527085025                       # number of demand (read+write) MSHR miss cycles
system.cpu.icache.overall_mshr_miss_latency::switch_cpus.inst    527085025                       # number of overall MSHR miss cycles
system.cpu.icache.overall_mshr_miss_latency::total    527085025                       # number of overall MSHR miss cycles
system.cpu.icache.ReadReq_mshr_miss_rate::switch_cpus.inst     0.074491                       # mshr miss rate for ReadReq accesses
system.cpu.icache.ReadReq_mshr_miss_rate::total     0.074491                       # mshr miss rate for ReadReq accesses
system.cpu.icache.demand_mshr_miss_rate::switch_cpus.inst     0.074491                       # mshr miss rate for demand accesses
system.cpu.icache.demand_mshr_miss_rate::total     0.074491                       # mshr miss rate for demand accesses
system.cpu.icache.overall_mshr_miss_rate::switch_cpus.inst     0.074491                       # mshr miss rate for overall accesses
system.cpu.icache.overall_mshr_miss_rate::total     0.074491                       # mshr miss rate for overall accesses
system.cpu.icache.ReadReq_avg_mshr_miss_latency::switch_cpus.inst 42915.243853                       # average ReadReq mshr miss latency
system.cpu.icache.ReadReq_avg_mshr_miss_latency::total 42915.243853                       # average ReadReq mshr miss latency
system.cpu.icache.demand_avg_mshr_miss_latency::switch_cpus.inst 42915.243853                       # average overall mshr miss latency
system.cpu.icache.demand_avg_mshr_miss_latency::total 42915.243853                       # average overall mshr miss latency
system.cpu.icache.overall_avg_mshr_miss_latency::switch_cpus.inst 42915.243853                       # average overall mshr miss latency
system.cpu.icache.overall_avg_mshr_miss_latency::total 42915.243853                       # average overall mshr miss latency
system.cpu.icache.no_allocate_misses                0                       # Number of misses that were no-allocate
system.disk0.dma_read_full_pages                    0                       # Number of full page size DMA reads (not PRD).
[...]
system.switch_cpus.iew.wb_count                978483                       # cumulative count of insts written-back
system.switch_cpus.iew.wb_producers            478600                       # num instructions producing a value
system.switch_cpus.iew.wb_consumers            638755                       # num instructions consuming a value
system.switch_cpus.iew.wb_penalized                 0                       # number of instrctions required to write to 'other' IQ
system.switch_cpus.iew.wb_rate               0.355365                       # insts written-back per cycle
system.switch_cpus.iew.wb_fanout             0.749270                       # average fanout of values written-back
system.switch_cpus.iew.wb_penalized_rate            0                       # fraction of instructions written-back that wrote to 'other' IQ
system.switch_cpus.commit.commitSquashedInsts       246958                       # The number of squashed insts skipped by commit
system.switch_cpus.commit.commitNonSpecStalls        11519                       # The number of times commit has been forced to stall to communicate backwards
system.switch_cpus.commit.branchMispredicts        13846                       # The number of times a branch was mispredicted
system.switch_cpus.commit.committed_per_cycle::samples      2079456                       # Number of insts commited each cycle
system.switch_cpus.commit.committed_per_cycle::mean     0.425411                       # Number of insts commited each cycle
system.switch_cpus.commit.committed_per_cycle::stdev     1.351003                       # Number of insts commited each cycle
system.switch_cpus.commit.committed_per_cycle::underflows            0      0.00%      0.00% # Number of insts commited each cycle
system.switch_cpus.commit.committed_per_cycle::0      1752941     84.30%     84.30% # Number of insts commited each cycle
system.switch_cpus.commit.committed_per_cycle::1       155390      7.47%     91.77% # Number of insts commited each cycle
system.switch_cpus.commit.committed_per_cycle::2        58906      2.83%     94.60% # Number of insts commited each cycle
system.switch_cpus.commit.committed_per_cycle::3        25089      1.21%     95.81% # Number of insts commited each cycle
system.switch_cpus.commit.committed_per_cycle::4        25597      1.23%     97.04% # Number of insts commited each cycle
system.switch_cpus.commit.committed_per_cycle::5        11140      0.54%     97.58% # Number of insts commited each cycle
system.switch_cpus.commit.committed_per_cycle::6         8960      0.43%     98.01% # Number of insts commited each cycle
system.switch_cpus.commit.committed_per_cycle::7         7158      0.34%     98.35% # Number of insts commited each cycle
system.switch_cpus.commit.committed_per_cycle::8        34275      1.65%    100.00% # Number of insts commited each cycle
system.switch_cpus.commit.committed_per_cycle::overflows            0      0.00%    100.00% # Number of insts commited each cycle
system.switch_cpus.commit.committed_per_cycle::min_value            0                       # Number of insts commited each cycle
system.switch_cpus.commit.committed_per_cycle::max_value            8                       # Number of insts commited each cycle
system.switch_cpus.commit.committed_per_cycle::total      2079456                       # Number of insts commited each cycle
system.switch_cpus.commit.committedInsts       884623                       # Number of instructions committed
system.switch_cpus.commit.committedOps         884623                       # Number of ops (including micro ops) committed
system.switch_cpus.commit.swp_count                 0                       # Number of s/w prefetches committed
system.switch_cpus.commit.refs                 310279                       # Number of memory references committed
system.switch_cpus.commit.loads                166142                       # Number of loads committed
system.switch_cpus.commit.membars                5911                       # Number of memory barriers committed
system.switch_cpus.commit.branches             124877                       # Number of branches committed
system.switch_cpus.commit.fp_insts               4407                       # Number of committed floating point instructions.
system.switch_cpus.commit.int_insts            848289                       # Number of committed integer instructions.
system.switch_cpus.commit.function_calls        12692                       # Number of function calls committed.
system.switch_cpus.commit.op_class_0::No_OpClass        18316      2.07%      2.07% # Class of committed instruction
system.switch_cpus.commit.op_class_0::IntAlu       525378     59.39%     61.46% # Class of committed instruction
system.switch_cpus.commit.op_class_0::IntMult          730      0.08%     61.54% # Class of committed instruction
system.switch_cpus.commit.op_class_0::IntDiv            0      0.00%     61.54% # Class of committed instruction
system.switch_cpus.commit.op_class_0::FloatAdd         1299      0.15%     61.69% # Class of committed instruction
system.switch_cpus.commit.op_class_0::FloatCmp            1      0.00%     61.69% # Class of committed instruction
system.switch_cpus.commit.op_class_0::FloatCvt            2      0.00%     61.69% # Class of committed instruction
system.switch_cpus.commit.op_class_0::FloatMult            1      0.00%     61.69% # Class of committed instruction
system.switch_cpus.commit.op_class_0::FloatDiv          245      0.03%     61.72% # Class of committed instruction
system.switch_cpus.commit.op_class_0::FloatSqrt            0      0.00%     61.72% # Class of committed instruction
system.switch_cpus.commit.op_class_0::SimdAdd            0      0.00%     61.72% # Class of committed instruction
system.switch_cpus.commit.op_class_0::SimdAddAcc            0      0.00%     61.72% # Class of committed instruction
system.switch_cpus.commit.op_class_0::SimdAlu            0      0.00%     61.72% # Class of committed instruction
system.switch_cpus.commit.op_class_0::SimdCmp            0      0.00%     61.72% # Class of committed instruction
system.switch_cpus.commit.op_class_0::SimdCvt            0      0.00%     61.72% # Class of committed instruction
system.switch_cpus.commit.op_class_0::SimdMisc            0      0.00%     61.72% # Class of committed instruction
system.switch_cpus.commit.op_class_0::SimdMult            0      0.00%     61.72% # Class of committed instruction
system.switch_cpus.commit.op_class_0::SimdMultAcc            0      0.00%     61.72% # Class of committed instruction
system.switch_cpus.commit.op_class_0::SimdShift            0      0.00%     61.72% # Class of committed instruction
system.switch_cpus.commit.op_class_0::SimdShiftAcc            0      0.00%     61.72% # Class of committed instruction
system.switch_cpus.commit.op_class_0::SimdSqrt            0      0.00%     61.72% # Class of committed instruction
system.switch_cpus.commit.op_class_0::SimdFloatAdd            0      0.00%     61.72% # Class of committed instruction
system.switch_cpus.commit.op_class_0::SimdFloatAlu            0      0.00%     61.72% # Class of committed instruction
system.switch_cpus.commit.op_class_0::SimdFloatCmp            0      0.00%     61.72% # Class of committed instruction
system.switch_cpus.commit.op_class_0::SimdFloatCvt            0      0.00%     61.72% # Class of committed instruction
system.switch_cpus.commit.op_class_0::SimdFloatDiv            0      0.00%     61.72% # Class of committed instruction
system.switch_cpus.commit.op_class_0::SimdFloatMisc            0      0.00%     61.72% # Class of committed instruction
system.switch_cpus.commit.op_class_0::SimdFloatMult            0      0.00%     61.72% # Class of committed instruction
system.switch_cpus.commit.op_class_0::SimdFloatMultAcc            0      0.00%     61.72% # Class of committed instruction
system.switch_cpus.commit.op_class_0::SimdFloatSqrt            0      0.00%     61.72% # Class of committed instruction
system.switch_cpus.commit.op_class_0::MemRead       172053     19.45%     81.17% # Class of committed instruction
system.switch_cpus.commit.op_class_0::MemWrite       144501     16.33%     97.50% # Class of committed instruction
system.switch_cpus.commit.op_class_0::IprAccess        22097      2.50%    100.00% # Class of committed instruction
system.switch_cpus.commit.op_class_0::InstPrefetch            0      0.00%    100.00% # Class of committed instruction
system.switch_cpus.commit.op_class_0::total       884623                       # Class of committed instruction
system.switch_cpus.commit.bw_lim_events         34275                       # number cycles where commit BW limit reached
system.switch_cpus.rob.rob_reads              3156549                       # The number of ROB reads
system.switch_cpus.rob.rob_writes             2306204                       # The number of ROB writes
system.switch_cpus.timesIdled                   10560                       # Number of times that the entire CPU went into an idle state and unscheduled itself
system.switch_cpus.idleCycles                  631299                       # Total number of cycles that the CPU has spent unscheduled due to idling
system.switch_cpus.committedInsts              866799                       # Number of Instructions Simulated
system.switch_cpus.committedOps                866799                       # Number of Ops (including micro ops) Simulated
system.switch_cpus.cpi                       3.176581                       # CPI: Cycles Per Instruction
system.switch_cpus.cpi_total                 3.176581                       # CPI: Total CPI of All Threads
system.switch_cpus.ipc                       0.314804                       # IPC: Instructions Per Cycle
system.switch_cpus.ipc_total                 0.314804                       # IPC: Total IPC of All Threads
system.switch_cpus.int_regfile_reads          1338258                       # number of integer regfile reads
system.switch_cpus.int_regfile_writes          680200                       # number of integer regfile writes
system.switch_cpus.fp_regfile_reads              3052                       # number of floating regfile reads
system.switch_cpus.fp_regfile_writes             2781                       # number of floating regfile writes
system.switch_cpus.misc_regfile_reads           30032                       # number of misc regfile reads
system.switch_cpus.misc_regfile_writes          17941                       # number of misc regfile writes
system.tol2bus.trans_dist::ReadReq              30528                       # Transaction distribution
system.tol2bus.trans_dist::ReadResp             30529                       # Transaction distribution
system.tol2bus.trans_dist::WriteReq               149                       # Transaction distribution
system.tol2bus.trans_dist::WriteResp              149                       # Transaction distribution
system.tol2bus.trans_dist::Writeback            14635                       # Transaction distribution
system.tol2bus.trans_dist::UpgradeReq               3                       # Transaction distribution
system.tol2bus.trans_dist::UpgradeResp              3                       # Transaction distribution
system.tol2bus.trans_dist::ReadExReq             9770                       # Transaction distribution
system.tol2bus.trans_dist::ReadExResp            9770                       # Transaction distribution
system.tol2bus.pkt_count_system.cpu.icache.mem_side::system.l2.cpu_side        31431                       # Packet count per connected master and slave (bytes)
system.tol2bus.pkt_count_system.cpu.dcache.mem_side::system.l2.cpu_side        64095                       # Packet count per connected master and slave (bytes)
system.tol2bus.pkt_count::total                 95526                       # Packet count per connected master and slave (bytes)
system.tol2bus.pkt_size_system.cpu.icache.mem_side::system.l2.cpu_side      1005504                       # Cumulative packet size per connected master and slave (bytes)
system.tol2bus.pkt_size_system.cpu.dcache.mem_side::system.l2.cpu_side      2489516                       # Cumulative packet size per connected master and slave (bytes)
system.tol2bus.pkt_size::total                3495020                       # Cumulative packet size per connected master and slave (bytes)
system.tol2bus.snoops                              10                       # Total snoops (count)
system.tol2bus.snoop_fanout::samples            55085                       # Request fanout histogram
system.tol2bus.snoop_fanout::mean                   1                       # Request fanout histogram
system.tol2bus.snoop_fanout::stdev                  0                       # Request fanout histogram
system.tol2bus.snoop_fanout::underflows             0      0.00%      0.00% # Request fanout histogram
system.tol2bus.snoop_fanout::0                      0      0.00%      0.00% # Request fanout histogram
system.tol2bus.snoop_fanout::1                  55085    100.00%    100.00% # Request fanout histogram
system.tol2bus.snoop_fanout::2                      0      0.00%    100.00% # Request fanout histogram
system.tol2bus.snoop_fanout::overflows              0      0.00%    100.00% # Request fanout histogram
system.tol2bus.snoop_fanout::min_value              1                       # Request fanout histogram
system.tol2bus.snoop_fanout::max_value              1                       # Request fanout histogram
system.tol2bus.snoop_fanout::total              55085                       # Request fanout histogram
system.tol2bus.reqLayer0.occupancy           42252000                       # Layer occupancy (ticks)
system.tol2bus.reqLayer0.utilization              3.1                       # Layer utilization (%)
system.tol2bus.respLayer0.occupancy          24845231                       # Layer occupancy (ticks)
system.tol2bus.respLayer0.utilization             1.8                       # Layer utilization (%)
system.tol2bus.respLayer1.occupancy          38965750                       # Layer occupancy (ticks)
system.tol2bus.respLayer1.utilization             2.8                       # Layer utilization (%)
system.tsunami.ethernet.descDMAReads                0                       # Number of descriptors the device read w/ DMA
system.tsunami.ethernet.descDMAWrites               0                       # Number of descriptors the device wrote w/ DMA
system.tsunami.ethernet.descDmaReadBytes            0                       # number of descriptor bytes read w/ DMA
system.tsunami.ethernet.descDmaWriteBytes            0                       # number of descriptor bytes write w/ DMA
system.tsunami.ethernet.postedSwi                   0                       # number of software interrupts posted to CPU
system.tsunami.ethernet.coalescedSwi              nan                       # average number of Swi's coalesced into each post
system.tsunami.ethernet.totalSwi                    0                       # total number of Swi written to ISR
system.tsunami.ethernet.postedRxIdle                0                       # number of rxIdle interrupts posted to CPU
system.tsunami.ethernet.coalescedRxIdle           nan                       # average number of RxIdle's coalesced into each post
system.tsunami.ethernet.totalRxIdle                 0                       # total number of RxIdle written to ISR
system.tsunami.ethernet.postedRxOk                  0                       # number of RxOk interrupts posted to CPU
system.tsunami.ethernet.coalescedRxOk             nan                       # average number of RxOk's coalesced into each post
system.tsunami.ethernet.totalRxOk                   0                       # total number of RxOk written to ISR
system.tsunami.ethernet.postedRxDesc                0                       # number of RxDesc interrupts posted to CPU
system.tsunami.ethernet.coalescedRxDesc           nan                       # average number of RxDesc's coalesced into each post
system.tsunami.ethernet.totalRxDesc                 0                       # total number of RxDesc written to ISR
system.tsunami.ethernet.postedTxOk                  0                       # number of TxOk interrupts posted to CPU
system.tsunami.ethernet.coalescedTxOk             nan                       # average number of TxOk's coalesced into each post
system.tsunami.ethernet.totalTxOk                   0                       # total number of TxOk written to ISR
system.tsunami.ethernet.postedTxIdle                0                       # number of TxIdle interrupts posted to CPU
system.tsunami.ethernet.coalescedTxIdle           nan                       # average number of TxIdle's coalesced into each post
system.tsunami.ethernet.totalTxIdle                 0                       # total number of TxIdle written to ISR
system.tsunami.ethernet.postedTxDesc                0                       # number of TxDesc interrupts posted to CPU
system.tsunami.ethernet.coalescedTxDesc           nan                       # average number of TxDesc's coalesced into each post
system.tsunami.ethernet.totalTxDesc                 0                       # total number of TxDesc written to ISR
system.tsunami.ethernet.postedRxOrn                 0                       # number of RxOrn posted to CPU
system.tsunami.ethernet.coalescedRxOrn            nan                       # average number of RxOrn's coalesced into each post
system.tsunami.ethernet.totalRxOrn                  0                       # total number of RxOrn written to ISR
system.tsunami.ethernet.coalescedTotal            nan                       # average number of interrupts coalesced into each post
system.tsunami.ethernet.postedInterrupts            0                       # number of posts to CPU
system.tsunami.ethernet.droppedPackets              0                       # number of packets dropped
system.switch_cpus.kern.inst.arm                    0                       # number of arm instructions executed
system.switch_cpus.kern.inst.quiesce                0                       # number of quiesce instructions executed
system.switch_cpus.kern.inst.hwrei                  0                       # number of hwrei instructions executed
system.switch_cpus.kern.mode_switch::kernel            0                       # number of protection mode switches
system.switch_cpus.kern.mode_switch::user            0                       # number of protection mode switches
system.switch_cpus.kern.mode_switch::idle            0                       # number of protection mode switches
system.switch_cpus.kern.mode_good::kernel            0                      
system.switch_cpus.kern.mode_good::user             0                      
system.switch_cpus.kern.mode_good::idle             0                      
system.switch_cpus.kern.mode_switch_good::kernel          nan                       # fraction of useful protection mode switches
system.switch_cpus.kern.mode_switch_good::user          nan                       # fraction of useful protection mode switches
system.switch_cpus.kern.mode_switch_good::idle          nan                       # fraction of useful protection mode switches
system.switch_cpus.kern.mode_switch_good::total          nan                       # fraction of useful protection mode switches
system.switch_cpus.kern.mode_ticks::kernel            0                       # number of ticks spent at the given mode
system.switch_cpus.kern.mode_ticks::user            0                       # number of ticks spent at the given mode
system.switch_cpus.kern.mode_ticks::idle            0                       # number of ticks spent at the given mode
system.switch_cpus.kern.swap_context                0                       # number of times the context was actually changed

---------- End Simulation Statistics   ----------
